 LISTING FILE: optdemo_coarse.out
                         UNIT  16
# Transport package input files                                                                                                                                                                         

 OPENING optdemo_coarse.btn
 FILE TYPE:BTN   UNIT   1

 OPENING optdemo_coarse.adv
 FILE TYPE:ADV   UNIT   2

 OPENING optdemo_coarse.dsp
 FILE TYPE:DSP   UNIT   3

 OPENING optdemo_coarse.ssm
 FILE TYPE:SSM   UNIT   4

 OPENING optdemo_coarse.rct
 FILE TYPE:RCT   UNIT   8

 OPENING optdemo_coarse.gcg
 FILE TYPE:GCG   UNIT   9
# Flow-Transport Link input file                                                                                                                                                                        

 OPENING optdemo_coarse.ftl
 FILE TYPE:FTL   UNIT  10
# Uncomment the following lines to override                                                                                                                                                             
# the default names of optional MT3DMS output files                                                                                                                                                     
# mt3d001.ucn, mt3d001.obs, mt3d001.mas, mt3d.cnf.                                                                                                                                                      
# The unit numbers for these files are preset in the                                                                                                                                                    
# MT3DMS code.                                                                                                                                                                                          
# data(binary) 201 species1.ucn                                                                                                                                                                         
# data         401 species1.obs                                                                                                                                                                         
# data         601 species1.mas                                                                                                                                                                         
# data         17  model_a.cnf                                                                                                                                                                          

                              +++++++++++++++++++++++++++++++++++++++++++++++++++++++++++++++++++++++
                              +                                                                     +
                              +                               MT3DMS                                +
                              +             A Modular 3D Multi-Species Transport Model              +
                              +    For Simulation of Advection, Dispersion and Chemical Reactions   +
                              +                of Contaminants in Groundwater Systems               +
                              +                                                                     +
                              +++++++++++++++++++++++++++++++++++++++++++++++++++++++++++++++++++++++

  ----- 
 | M T | run 109 same as 108 but set Kd=0.24 (0.008475); 8/31/2000; from richard smith   
 | 3 D | adapted for optimization demo project by c zheng; last modification 3/14/2001   
  ----- 
 THE TRANSPORT MODEL CONSISTS OF     5 LAYER(S)   66 ROW(S)   64 COLUMN(S)
 NUMBER OF STRESS PERIOD(S) FOR TRANSPORT SIMULATION =    1
 NUMBER OF ALL COMPONENTS INCLUDED IN SIMULATION =    2
 NUMBER OF MOBILE COMPONENTS INCLUDED IN SIMULATION =    2
 UNIT FOR TIME IS   yr;  UNIT FOR LENGTH IS   ft;  UNIT FOR MASS IS   kg
 PACKAGES INCLUDED IN CURRENT SIMULATION:
   1  2  3  4  5  6  7  8  9 10
   T  T  T  T  T  F  F  F  F  F

 BTN4 -- BASIC TRANSPORT PACKAGE, VERSION 4, AUGUST 2001, INPUT READ FROM UNIT  1
     448004 ELEMENTS OF THE  X ARRAY USED BY THE BTN PACKAGE
      42245 ELEMENTS OF THE IX ARRAY USED BY THE BTN PACKAGE

 FMI4 -- FLOW MODEL INTERFACE PACKAGE, VERSION 4, AUGUST 2001, INPUT READ FROM UNIT 10
 FLOW MODEL IS TRANSIENT
 FLOW MODEL CONTAINS CONSTANT-HEAD CELLS

 ADV4 -- ADVECTION PACKAGE, VERSION 4, AUGUST 2001, INPUT READ FROM UNIT  2
 ADVECTION IS SOLVED WITH THE UPSTREAM FINITE DIFFERENCE SCHEME
 COURANT NUMBER ALLOWED IN SOLVING THE ADVECTION TERM =  1.00    
          0 ELEMENTS OF THE  X ARRAY USED BY THE ADV PACKAGE
          0 ELEMENTS OF THE IX ARRAY USED BY THE ADV PACKAGE

 DSP4 -- DISPERSION PACKAGE, VERSION 4, AUGUST 2001, INPUT READ FROM UNIT  3
     211215 ELEMENTS OF THE  X ARRAY USED BY THE DSP PACKAGE
          0 ELEMENTS OF THE IX ARRAY USED BY THE DSP PACKAGE

 SSM4 -- SINK & SOURCE MIXING PACKAGE, VERSION 4, AUGUST 2001, INPUT READ FROM UNIT  4

 HEADER LINE OF THE SSM PACKAGE INPUT FILE:
  T F T F F F                                                                                                                                                                                            
 MAJOR STRESS COMPONENTS PRESENT IN THE FLOW MODEL:
 o WELL
 o RECHARGE
 MAXIMUM NUMBER OF POINT SINKS/SOURCES =    1014
      20784 ELEMENTS OF THE  X ARRAY USED BY THE SSM PACKAGE
       4224 ELEMENTS OF THE IX ARRAY BY THE SSM PACKAGE

 RCT4 -- CHEMICAL REACTION PACKAGE, VERSION 4, AUGUST 2001, INPUT READ FROM UNIT  8
 TYPE OF SORPTION SELECTED IS [LINEAR]
 NO FIRST-ORDER RATE REACTION IS SIMULATED
 REACTION COEFFICIENTS ASSIGNED CELL-BY-CELL
 INITIAL SORBED/IMMOBILE PHASE CONCENTRATION ASSIGNED BY DEFAULT
     105600 ELEMENTS OF THE  X ARRAY USED BY THE RCT PACKAGE
          0 ELEMENTS OF THE IX ARRAY USED BY THE RCT PACKAGE

 GCG4 -- GENERALIZED CONJUGATE GRADIENT SOLVER PACKAGE, VERSION 4, AUGUST 2001 INPUT READ FROM UNIT  9
 MAXIMUM OF    1 OUTER ITERATIONS
        AND   50 INNER ITERATIONS ALLOWED FOR CLOSURE
 THE PRECONDITIONING TYPE SELECTED IS MODIFIED INCOMPLETE CHOLESKY (MIC).
 DISPERSION CROSS TERMS LUMPED INTO RIGHT-HAND-SIDE
     464690 ELEMENTS OF THE  X ARRAY USED BY THE GCG PACKAGE
        150 ELEMENTS OF THE IX ARRAY USED BY THE GCG PACKAGE

 ................................................................
    1250294 ELEMENTS OF THE  X ARRAY USED OUT OF  999999999
      46620 ELEMENTS OF THE IX ARRAY USED OUT OF  999999999
 ................................................................

 LAYER NUMBER  AQUIFER TYPE
 ------------  ------------
       1            1
       2            3
       3            3
       4            3
       5            3

                           WIDTH ALONG ROWS (DELR)  READ ON UNIT  1 USING FORMAT: "           (10G15.6)"
                           -----------------------------------------------------------------------------

            1           2           3           4           5           6           7           8           9          10
           11          12          13          14          15          16          17          18          19          20
           21          22          23          24          25          26          27          28          29          30
           31          32          33          34          35          36          37          38          39          40
           41          42          43          44          45          46          47          48          49          50
           51          52          53          54          55          56          57          58          59          60
           61          62          63          64
 ........................................................................................................................
   1    556.7       1113.       1061.       877.2       725.0       599.2       495.2       409.2       338.2       279.5    
        231.0       200.0       226.2       232.5       219.4       186.0       153.7       127.1       105.0       104.8    
        109.6       109.6       87.44       83.98       69.88       57.75       46.64       43.27       52.41       49.58    
        49.17       49.17       49.58       57.75       69.88       75.83       75.83       75.83       69.88       57.75    
        47.90       45.79       65.46       95.73       127.1       153.7       176.3       176.3       218.2       260.2    
        251.1       210.0       231.0       279.5       338.2       409.2       495.2       599.2       725.0       877.2    
        1061.       1272.       660.7       660.7    

                           WIDTH ALONG COLS (DELC)  READ ON UNIT  1 USING FORMAT: "           (10G15.6)"
                           -----------------------------------------------------------------------------

            1           2           3           4           5           6           7           8           9          10
           11          12          13          14          15          16          17          18          19          20
           21          22          23          24          25          26          27          28          29          30
           31          32          33          34          35          36          37          38          39          40
           41          42          43          44          45          46          47          48          49          50
           51          52          53          54          55          56          57          58          59          60
           61          62          63          64          65          66
 ........................................................................................................................
   1    1027.       1027.       1006.       854.7       706.4       583.8       482.5       398.7       329.5       272.3    
        225.1       186.0       153.7       127.1       105.0       105.0       127.1       107.4       79.73       76.47    
        63.53       52.50       49.61       49.61       49.61       49.61       50.69       51.38       51.38       50.69    
        49.59       49.59       49.59       49.59       52.50       63.53       76.87       90.87       93.17       113.8    
        113.8       111.9       105.0       127.1       153.7       186.0       202.9       202.9       249.3       295.8    
        279.5       231.0       190.9       181.8       190.9       231.0       279.5       338.2       409.2       495.2    
        599.2       725.0       877.2       1061.       1259.       1296.    

                           TOP ELEV. OF 1ST LAYER   READ ON UNIT  1 USING FORMAT: "           (10G15.6)"
                           -----------------------------------------------------------------------------

            1           2           3           4           5           6           7           8           9          10
           11          12          13          14          15          16          17          18          19          20
           21          22          23          24          25          26          27          28          29          30
           31          32          33          34          35          36          37          38          39          40
           41          42          43          44          45          46          47          48          49          50
           51          52          53          54          55          56          57          58          59          60
           61          62          63          64
 ........................................................................................................................
   1    675.7       675.7       675.7       675.7       675.7       675.7       675.7       675.7       675.7       675.7    
        675.7       675.7       675.7       675.7       675.7       675.7       675.7       675.7       675.7       675.7    
        675.7       675.7       675.7       675.7       675.7       675.7       675.7       675.7       675.7       675.7    
        675.7       675.7       675.7       675.7       675.7       675.7       675.7       675.7       675.7       675.7    
        675.7       675.7       675.7       675.7       675.7       675.7       675.7       675.7       675.7       675.7    
        675.7       675.7       675.7       675.7       675.7       675.7       675.7       675.7       675.7       675.7    
        675.7       675.7       675.7       675.7    
   2    675.7       610.2       620.1       626.6       624.5       629.5       636.4       636.5       638.1       643.1    
        645.2       649.6       647.0       643.2       641.1       637.3       636.4       634.7       632.4       630.6    
        626.6       622.9       618.9       614.8       613.9       613.6       613.5       613.5       613.5       613.5    
        613.5       613.5       613.5       613.6       616.2       616.8       616.9       617.3       617.9       618.6    
        619.1       619.7       620.1       620.1       620.6       623.4       622.9       609.8       604.5       621.7    
        630.0       636.5       638.7       639.9       642.8       637.2       636.2       635.0       670.8       678.9    
        672.7       665.2       659.4       675.7    
   3    675.7       607.0       613.5       607.0       615.9       629.4       642.3       648.2       653.8       656.1    
        654.7       653.0       651.5       646.6       636.0       634.1       628.3       619.6       610.8       606.1    
        603.9       603.7       603.7       603.7       603.7       603.7       603.7       603.9       606.2       607.2    
        609.4       610.4       612.7       613.7       616.7       621.2       623.4       623.4       623.4       624.2    
        624.9       625.1       626.6       626.6       626.7       629.9       630.3       633.4       635.1       639.7    
        620.8       606.5       620.9       636.5       632.7       647.8       661.5       660.4       672.6       668.7    
        666.0       659.1       651.8       675.7    
   4    675.7       603.7       603.6       603.7       615.3       623.1       629.8       630.5       629.9       629.9    
        629.9       629.9       628.9       626.8       624.3       616.8       610.3       611.4       612.2       613.0    
        613.5       613.5       614.4       616.6       618.2       620.2       624.0       626.6       628.2       630.2    
        632.3       635.4       637.2       638.7       639.3       639.7       639.8       640.1       640.6       641.3    
        641.8       642.3       642.9       643.0       643.0       644.3       633.4       626.6       620.2       601.0    
        588.2       597.4       623.0       642.9       656.3       661.3       664.3       666.0       669.3       666.8    
        652.9       640.3       644.8       675.7    
   5    675.7       592.4       599.9       608.1       610.2       603.8       604.6       596.3       593.9       601.9    
        603.9       607.6       613.5       618.3       623.3       624.1       628.1       629.8       630.1       630.6    
        630.2       631.5       634.2       636.7       639.0       638.6       638.0       639.1       640.4       640.0    
        639.8       639.8       639.7       641.0       641.2       639.6       637.4       634.1       629.6       624.2    
        622.6       620.1       617.3       616.8       615.9       613.5       609.2       606.7       602.3       590.5    
        592.7       621.0       651.7       654.0       660.1       666.2       669.3       662.8       652.9       648.7    
        650.8       646.2       645.9       675.7    
   6    675.7       601.6       599.6       582.4       580.7       591.8       608.5       614.3       623.3       621.0    
        616.8       614.1       607.1       607.0       609.0       612.9       613.0       611.7       618.3       622.8    
        621.9       620.7       620.2       620.1       620.4       621.5       622.5       623.5       624.5       625.5    
        626.2       626.6       626.7       626.9       627.3       627.6       625.4       623.6       622.2       620.1    
        618.5       617.1       616.8       615.7       609.1       600.3       582.5       575.6       574.1       588.5    
        634.8       656.6       662.7       662.7       659.4       656.2       652.9       653.1       656.2       659.4    
        654.2       633.5       623.2       675.7    
   7    675.7       569.6       592.7       591.6       584.0       586.8       595.7       594.1       597.0       600.4    
        603.7       601.6       603.5       608.2       623.7       633.2       638.1       642.4       643.0       642.8    
        641.8       634.4       626.0       621.7       619.7       617.5       617.6       617.0       616.8       616.8    
        616.8       616.8       616.8       616.8       614.3       611.0       608.7       606.8       606.8       606.9    
        603.5       600.7       598.0       596.4       589.2       577.3       576.5       578.8       586.1       621.6    
        639.1       645.1       649.6       653.5       656.9       662.7       669.2       662.6       657.7       652.9    
        644.8       645.5       633.1       675.7    
   8    675.7       583.7       579.5       566.9       573.9       593.9       606.8       603.7       600.8       600.4    
        600.4       600.0       601.0       610.1       614.1       623.4       624.2       625.5       626.4       626.7    
        625.4       619.3       616.8       616.8       616.7       614.3       613.5       613.5       613.5       612.4    
        612.3       610.8       609.8       605.7       603.1       600.3       595.2       593.6       591.6       584.0    
        581.9       577.9       574.8       574.2       573.5       574.1       596.9       612.9       633.1       651.5    
        649.6       645.2       643.2       642.0       639.8       637.1       645.8       652.8       658.0       652.9    
        643.0       626.3       620.0       675.7    
   9    675.7       586.9       590.6       564.1       563.9       586.4       592.6       595.9       598.4       603.6    
        604.7       607.7       616.9       630.3       633.0       633.2       630.9       629.9       626.6       623.2    
        616.6       613.5       613.5       613.5       610.5       610.0       609.8       609.4       607.2       606.3    
        604.0       602.6       598.6       597.6       593.8       587.8       584.0       578.8       568.3       558.7    
        553.7       552.9       552.2       550.9       554.8       566.8       589.7       613.9       634.4       648.8    
        656.3       659.4       658.4       656.2       654.0       648.3       638.9       634.8       634.0       640.8    
        645.4       626.1       612.1       675.7    
  10    675.7       577.4       587.4       564.8       566.1       584.0       580.8       583.4       586.7       590.6    
        592.4       600.3       611.4       631.0       634.4       638.7       639.7       633.8       623.9       617.9    
        614.0       613.5       613.5       611.2       609.2       606.7       604.1       600.6       598.4       594.4    
        592.5       588.7       588.1       586.3       580.8       575.9       570.8       561.7       554.8       549.5    
        546.6       545.4       544.8       544.7       552.6       560.5       584.0       600.0       610.0       628.3    
        642.2       646.4       648.3       652.8       658.5       658.0       648.0       642.4       632.7       623.0    
        630.4       629.4       617.8       675.7    
  11    675.7       578.7       580.3       561.0       570.6       580.7       584.0       583.0       580.7       580.7    
        581.0       588.8       599.3       616.8       620.0       621.9       625.3       620.0       613.6       611.1    
        609.2       610.1       609.3       604.1       599.1       596.8       592.6       591.9       589.8       587.4    
        581.2       579.9       577.8       574.8       568.7       563.5       560.2       557.1       554.5       554.3    
        554.1       553.8       555.2       556.6       569.1       590.1       600.5       610.5       612.6       631.1    
        633.9       636.1       636.7       642.2       645.1       646.7       643.2       648.9       638.1       625.5    
        619.6       619.4       620.6       675.7    
  12    675.7       585.9       574.1       560.4       567.6       579.1       587.3       586.0       584.0       584.0    
        584.0       587.1       593.9       607.7       610.2       612.5       615.6       609.0       605.5       604.2    
        603.1       603.5       599.0       594.2       591.0       586.1       584.9       580.9       579.0       572.1    
        569.9       565.5       563.8       557.5       556.7       555.4       554.1       554.4       555.7       557.7    
        557.7       557.8       565.4       571.1       590.1       609.2       618.7       623.4       624.2       636.5    
        636.5       636.5       636.0       633.5       634.6       637.3       635.1       640.7       645.4       633.7    
        618.4       606.9       610.6       675.7    
  13    675.7       593.8       574.1       557.7       563.4       573.6       584.0       587.3       585.4       584.0    
        587.3       587.5       594.8       602.7       601.6       603.4       602.7       602.6       602.8       600.3    
        597.2       594.4       590.2       583.6       581.8       580.0       573.5       570.8       563.0       558.9    
        553.7       551.1       548.4       546.6       544.7       544.6       544.9       546.1       551.9       553.5    
        554.4       557.1       569.2       578.9       597.0       614.9       627.0       634.9       633.7       639.4    
        639.8       639.5       637.3       636.5       636.5       633.1       627.7       632.8       635.4       639.6    
        623.4       598.1       600.8       675.7    
  14    675.7       595.8       574.1       557.7       558.4       566.3       583.0       585.6       587.3       587.3    
        590.0       590.5       593.9       599.4       597.2       598.6       597.5       597.2       595.1       595.4    
        593.0       589.0       583.2       578.0       574.0       570.5       563.8       561.2       554.7       549.8    
        539.1       537.8       536.1       536.5       536.5       539.6       541.1       542.7       548.0       550.6    
        552.5       560.0       570.9       577.5       595.5       615.0       627.8       633.2       634.4       639.7    
        641.8       639.9       639.8       639.8       638.0       634.9       626.1       627.9       629.6       633.4    
        624.6       599.8       592.7       675.7    
  15    675.7       589.4       574.1       558.2       557.7       562.5       579.2       581.8       584.1       586.7    
        590.5       590.5       593.6       595.5       593.8       594.2       592.5       593.3       590.8       590.8    
        588.7       585.3       581.0       576.0       570.8       563.4       560.5       553.1       548.0       537.8    
        531.5       529.7       528.7       529.3       530.9       533.5       536.7       541.5       545.6       550.8    
        553.8       561.1       574.0       578.1       596.1       613.6       627.6       631.0       633.3       636.2    
        640.5       642.7       642.7       640.1       639.8       636.3       629.7       624.1       622.8       627.9    
        626.6       602.1       590.5       675.7    
  16    675.7       584.8       574.1       558.6       557.7       559.1       577.4       578.4       580.8       583.4    
        587.5       589.4       590.6       591.5       587.3       587.3       586.5       587.2       585.7       585.4    
        586.2       581.6       578.2       573.8       569.9       563.1       559.8       552.9       549.3       539.6    
        538.1       538.0       538.0       539.1       538.5       537.0       534.7       540.4       544.2       548.1    
        555.8       561.0       572.4       578.7       597.0       610.9       626.5       629.8       630.4       632.9    
        634.5       639.3       640.1       642.6       641.9       639.5       633.1       626.0       619.3       622.2    
        622.9       604.3       592.8       675.7    
  17    675.7       578.4       572.9       557.8       557.7       560.6       574.8       577.4       580.6       580.7    
        584.0       585.1       587.1       585.8       583.6       581.3       580.5       583.1       581.0       580.9    
        581.8       580.7       574.2       571.3       567.5       564.1       559.3       556.3       551.1       546.5    
        547.4       548.5       551.3       554.4       558.7       558.5       557.0       562.1       564.3       565.9    
        570.2       572.0       579.3       586.3       597.7       614.2       624.0       625.8       626.7       628.8    
        630.0       633.7       636.5       638.3       640.0       643.0       639.8       628.3       616.3       614.5    
        614.6       607.6       592.0       675.7    
  18    675.7       571.3       568.6       557.6       559.8       561.0       574.1       574.2       576.7       578.0    
        580.4       580.9       583.1       581.0       580.7       577.4       575.5       576.0       577.0       577.4    
        577.7       578.2       574.0       570.8       565.3       563.4       561.0       560.0       556.5       556.7    
        562.3       562.5       568.1       570.1       577.4       582.0       584.9       586.2       587.5       587.5    
        588.8       592.5       599.2       602.2       608.4       623.4       626.6       623.4       626.5       625.0    
        626.5       627.5       629.7       631.5       636.5       642.4       643.6       630.4       619.5       607.0    
        610.2       608.4       590.9       675.7    
  19    675.7       568.5       566.2       557.2       560.7       563.8       574.1       574.1       574.1       575.7    
        577.4       578.5       580.5       580.7       580.3       574.3       574.3       573.7       574.1       574.4    
        575.3       575.4       573.2       570.6       567.5       565.4       563.4       563.2       561.9       565.3    
        572.1       575.0       580.6       586.3       592.5       595.7       599.2       599.7       602.1       605.9    
        607.2       609.0       612.0       612.2       617.7       632.0       629.3       624.1       623.4       622.4    
        620.2       624.0       626.6       628.5       633.4       636.5       646.3       630.0       620.1       609.9    
        604.5       605.0       590.6       675.7    
  20    675.7       567.6       563.7       555.9       561.0       564.3       574.1       574.1       574.1       574.1    
        574.4       576.4       577.5       579.1       577.4       573.7       573.5       570.8       570.3       569.8    
        572.3       571.9       569.3       567.8       567.6       566.4       565.7       567.2       568.3       576.4    
        581.0       588.7       593.0       600.8       603.8       608.0       612.5       614.5       617.8       622.2    
        622.2       622.2       622.0       621.2       626.6       636.1       631.4       626.7       626.1       620.4    
        617.5       619.8       620.8       626.3       629.0       633.5       640.1       632.4       620.6       610.2    
        601.4       598.6       590.5       675.7    
  21    675.7       567.6       562.0       554.5       561.2       564.5       574.1       574.1       574.1       574.1    
        574.1       574.1       575.2       577.3       574.8       572.4       570.8       567.4       566.4       566.7    
        567.5       565.4       565.5       566.2       567.0       567.6       568.3       570.3       572.8       584.2    
        587.5       597.7       599.7       609.2       613.2       621.0       629.6       630.9       630.9       631.9    
        630.1       629.6       630.3       631.1       636.7       639.5       633.3       629.6       627.6       623.1    
        617.5       616.9       618.7       623.4       626.2       630.4       637.3       632.2       623.3       610.6    
        598.7       592.4       588.3       675.7    
  22    675.7       567.6       559.6       554.5       561.6       567.2       574.1       574.1       574.1       574.1    
        574.1       574.1       574.1       574.8       573.8       570.9       569.0       565.4       562.1       561.5    
        563.4       563.6       564.1       564.3       565.1       567.5       568.7       570.7       574.8       586.5    
        591.2       602.5       607.4       619.2       626.2       631.2       636.2       636.7       637.5       639.9    
        639.7       639.2       640.0       638.9       640.3       642.8       635.8       630.6       629.9       624.2    
        620.0       618.1       616.8       620.6       623.7       626.6       634.2       629.3       624.8       613.2    
        598.1       589.9       584.1       675.7    
  23    675.7       567.7       556.5       554.4       560.3       567.2       574.1       574.1       574.1       574.1    
        574.1       574.1       574.1       574.1       571.4       570.1       567.0       560.6       558.2       560.3    
        561.0       561.2       561.8       562.7       564.7       567.2       569.3       570.8       577.6       587.1    
        593.7       603.4       609.5       620.0       629.0       636.1       643.3       648.3       648.9       647.6    
        645.4       643.6       643.8       643.2       645.6       644.3       636.7       633.0       629.9       625.9    
        621.1       620.0       618.3       616.8       622.1       625.0       631.6       627.8       626.0       613.9    
        597.7       585.0       582.8       675.7    
  24    675.7       569.8       556.4       552.6       559.3       564.8       574.1       574.1       574.1       574.1    
        574.1       574.1       574.1       574.1       570.5       567.8       566.2       558.6       554.8       557.8    
        559.0       559.2       560.8       561.0       562.9       565.2       570.7       572.8       580.9       587.4    
        596.4       603.7       612.3       620.2       628.7       635.4       642.2       648.8       652.1       652.8    
        652.8       652.4       650.6       649.0       647.8       645.3       638.9       633.9       629.9       626.5    
        623.2       621.3       620.1       618.1       617.5       623.4       629.9       625.1       624.6       616.0    
        597.3       583.5       580.8       675.7    
  25    675.7       570.9       557.9       551.2       558.8       564.3       573.9       574.1       574.1       574.1    
        574.1       574.1       574.1       574.1       568.3       567.6       564.5       555.5       552.9       556.4    
        557.7       554.9       558.6       559.5       563.1       565.3       572.3       574.8       583.6       588.1    
        599.2       604.1       614.0       619.5       629.3       636.1       641.4       646.7       650.1       651.0    
        651.5       652.0       652.7       652.8       652.3       647.4       639.7       636.2       631.1       628.1    
        624.3       623.3       620.1       620.0       617.3       621.8       626.3       623.5       623.4       616.6    
        597.5       581.1       578.4       675.7    
  26    675.7       570.9       558.9       551.2       557.7       564.3       571.7       574.1       574.1       574.1    
        574.1       574.1       574.1       574.1       567.3       567.6       561.8       553.9       551.2       551.9    
        553.8       553.9       557.6       557.7       563.2       566.4       573.5       575.7       585.6       589.2    
        601.0       605.2       614.4       619.0       629.7       637.7       641.7       645.8       649.1       649.5    
        649.6       649.8       650.4       651.0       651.5       648.7       641.7       637.1       633.1       629.3    
        626.5       624.2       620.1       620.1       619.7       620.1       623.3       620.8       622.4       616.8    
        599.8       579.6       574.3       675.7    
  27    675.7       570.9       560.9       551.2       556.1       563.9       570.7       574.1       574.1       574.1    
        574.1       574.1       574.1       573.9       564.8       566.1       559.3       549.2       548.0       550.0    
        551.1       552.0       555.6       557.9       563.9       568.0       574.0       577.7       586.5       590.8    
        600.3       604.8       615.9       620.4       630.0       638.6       641.6       643.3       644.7       645.8    
        647.0       648.0       649.3       649.6       646.8       645.6       641.8       639.3       634.3       633.0    
        627.5       625.2       621.5       620.1       620.1       618.5       619.9       620.2       620.8       617.3    
        600.6       574.5       573.0       675.7    
  28    675.7       570.9       560.9       552.7       554.5       561.6       568.3       574.1       574.1       574.1    
        574.1       574.1       574.1       571.6       563.5       561.2       555.1       547.0       544.6       545.2    
        547.1       551.0       555.1       558.3       564.2       569.7       574.2       579.6       587.1       592.8    
        600.3       606.8       616.5       622.8       630.2       637.3       640.7       642.4       642.8       643.0    
        643.1       643.3       644.5       645.6       645.6       643.4       638.8       638.6       636.4       634.3    
        629.8       625.9       623.3       621.3       620.1       616.8       616.8       620.1       618.8       619.6    
        602.8       573.6       570.9       675.7    
  29    675.7       570.9       561.0       553.3       554.5       560.6       567.4       572.8       574.1       574.1    
        574.1       574.1       574.1       570.7       560.6       559.0       551.4       542.0       541.2       543.4    
        544.5       548.3       553.2       557.5       564.4       571.3       574.6       581.9       587.4       595.0    
        600.5       609.6       616.8       624.3       630.1       636.3       639.3       639.9       640.5       641.1    
        641.6       642.1       642.8       643.0       643.2       639.6       637.3       635.7       635.3       636.4    
        631.4       627.5       624.9       623.3       620.7       618.5       614.9       619.0       616.9       619.1    
        603.3       575.6       568.3       675.7    
  30    675.7       570.9       562.3       554.8       554.5       558.1       564.9       568.0       574.1       574.1    
        574.1       574.1       574.1       570.0       559.3       553.7       547.7       539.4       538.0       538.5    
        541.5       548.3       553.0       557.9       564.7       572.7       575.5       584.2       587.9       597.3    
        601.1       612.1       617.2       624.4       628.6       634.2       638.0       639.0       639.5       639.7    
        639.8       639.9       640.4       640.5       641.5       636.5       634.0       633.9       633.2       635.3    
        634.4       628.3       626.6       624.7       623.1       620.1       613.6       616.9       616.8       616.2    
        605.2       575.3       564.4       675.7    
  31    675.7       570.8       564.2       555.6       552.7       557.4       564.1       566.8       571.9       574.1    
        574.1       574.1       574.1       568.6       556.2       551.0       544.3       531.6       532.8       536.5    
        540.3       546.9       553.0       559.4       565.4       574.0       577.4       585.5       589.3       598.7    
        602.5       614.6       617.8       625.7       629.1       633.3       636.5       636.7       637.1       637.8    
        637.5       637.8       639.2       638.4       636.8       634.6       632.7       630.2       632.0       633.3    
        633.7       630.0       628.2       626.6       624.0       621.7       615.4       615.7       616.7       615.1    
        605.5       574.8       564.3       675.7    
  32    675.7       568.6       565.5       556.9       551.2       554.9       561.7       564.6       570.7       572.5    
        574.1       574.1       574.1       564.8       554.7       544.1       538.8       529.0       528.2       531.1    
        538.5       547.5       553.5       560.9       567.5       576.7       580.6       586.8       590.7       599.9    
        604.6       615.7       619.2       626.3       628.7       631.0       633.4       635.7       636.3       636.3    
        634.3       633.5       634.7       635.0       635.1       632.9       628.2       629.2       630.0       632.1    
        633.2       630.0       629.9       626.6       626.3       623.4       616.8       613.6       615.1       613.6    
        607.4       574.9       564.3       675.7    
  33    675.7       567.6       567.5       558.0       552.8       554.1       560.6       563.6       566.6       570.9    
        572.5       574.1       574.1       562.4       549.7       541.3       532.8       523.6       524.9       529.8    
        537.5       547.8       554.2       563.9       569.8       577.5       582.8       587.2       593.0       600.3    
        606.1       614.3       619.4       626.6       629.1       629.9       630.1       633.4       633.9       634.2    
        632.3       632.3       633.0       633.1       630.6       629.4       626.4       626.9       628.7       630.0    
        632.2       629.9       629.9       626.6       626.6       625.0       618.6       614.5       613.5       613.1    
        606.8       577.1       564.3       675.7    
  34    675.7       567.6       568.7       559.7       554.4       551.7       556.1       561.3       564.2       569.3    
        570.9       572.1       574.0       559.0       547.8       536.2       528.5       521.5       521.7       525.4    
        535.9       547.9       554.4       566.3       573.0       577.8       584.5       587.4       595.2       600.6    
        608.1       613.6       620.8       626.7       629.5       629.9       630.1       632.4       633.0       632.4    
        630.2       630.1       630.5       629.5       629.2       626.6       624.2       625.3       626.7       627.9    
        630.1       627.5       629.9       625.3       626.6       626.6       620.1       616.7       612.0       611.0    
        601.8       577.4       564.3       675.7    
  35    675.7       567.5       570.8       561.0       554.5       551.6       554.2       560.4       562.2       567.6    
        570.9       570.9       571.7       556.7       545.2       533.5       523.3       516.4       518.3       523.5    
        534.8       548.1       554.6       567.3       574.8       578.6       585.7       588.2       597.1       601.2    
        610.2       614.0       621.8       625.7       629.8       629.9       629.9       630.2       630.6       630.0    
        628.6       629.0       629.0       626.8       626.8       623.0       623.1       620.6       624.2       623.5    
        627.9       623.5       626.8       623.4       626.1       626.6       621.9       616.8       610.3       609.8    
        600.0       577.4       564.3       675.7    
  36    675.7       564.9       567.4       563.3       554.5       554.2       551.5       557.8       560.7       565.4    
        570.8       570.9       570.9       555.0       544.5       528.3       516.1       512.7       514.8       518.7    
        532.9       547.6       555.8       567.6       576.1       580.2       586.9       589.4       599.3       602.5    
        612.2       615.0       622.1       624.8       629.9       629.9       629.9       629.9       629.9       628.0    
        626.6       626.7       625.7       624.2       625.1       620.0       620.4       618.8       620.1       621.7    
        623.4       621.5       623.3       623.4       623.4       626.6       623.5       616.8       610.2       607.1    
        597.3       578.4       564.3       675.7    
  37    675.7       564.3       563.8       564.8       557.5       556.5       552.9       552.8       557.8       564.3    
        567.7       569.7       570.9       554.5       543.3       527.7       512.5       505.2       506.3       515.1    
        533.0       549.0       560.1       568.3       577.2       582.5       587.3       592.4       600.2       605.5    
        613.3       617.2       623.2       624.9       627.7       629.9       629.9       629.9       629.8       627.3    
        626.6       626.6       624.5       623.4       622.0       616.9       618.4       616.6       617.2       619.4    
        620.6       619.6       620.3       622.4       623.4       623.5       626.5       619.5       610.2       606.9    
        592.8       580.7       567.1       675.7    
  38    675.7       563.6       560.9       565.7       557.7       558.0       555.5       552.9       554.7       564.0    
        564.8       567.0       567.7       554.3       542.2       529.6       512.6       505.3       507.2       517.0    
        536.0       552.7       564.3       572.1       577.6       585.4       588.1       596.3       600.7       607.1    
        610.5       616.8       620.7       625.1       626.9       629.1       629.7       629.9       629.9       629.5    
        628.4       626.7       624.6       623.8       621.8       619.5       617.0       613.6       614.4       613.4    
        616.8       616.6       614.9       616.6       620.1       623.4       623.8       620.1       610.2       605.1    
        587.0       580.7       567.7       675.7    
  39    675.7       561.4       557.7       561.7       560.1       560.3       557.9       554.5       553.0       560.9    
        561.9       564.3       564.6       553.8       545.5       531.6       518.7       514.7       515.1       524.9    
        541.2       556.0       568.2       576.0       580.2       587.0       591.1       599.3       602.4       609.3    
        612.1       619.1       621.1       626.3       626.6       626.6       626.6       629.4       629.9       629.9    
        629.2       628.3       626.6       625.3       623.3       622.5       617.6       616.8       615.5       610.3    
        612.1       610.3       611.2       610.6       614.3       618.7       623.4       621.8       610.1       602.5    
        580.1       577.5       568.2       675.7    
  40    675.7       564.3       554.2       557.3       561.0       564.0       558.9       556.2       556.9       559.9    
        561.0       563.6       563.8       554.8       548.1       536.1       528.0       524.8       526.3       537.2    
        548.2       561.1       573.8       579.9       584.9       588.9       596.2       600.4       605.7       610.3    
        615.3       620.1       623.3       626.6       626.6       626.6       627.0       629.9       629.9       629.9    
        629.9       629.8       627.7       626.7       623.5       623.4       621.2       620.1       619.2       613.6    
        610.3       606.8       604.8       606.5       606.9       611.5       617.6       621.2       609.3       598.7    
        573.0       574.2       569.4       675.7    
  41    675.7       565.8       548.4       554.5       561.0       566.4       562.8       560.3       561.0       557.7    
        557.9       559.7       559.4       556.4       551.2       545.6       537.2       534.9       534.5       546.1    
        552.9       565.6       574.7       583.8       589.4       592.7       599.8       601.7       609.5       611.8    
        618.6       620.9       625.5       626.6       626.6       626.6       628.0       629.9       629.9       629.9    
        629.9       629.9       629.4       627.9       626.9       626.5       625.1       623.6       622.9       617.2    
        612.8       607.3       603.7       600.4       598.8       604.0       610.4       612.2       607.3       594.8    
        570.8       570.5       567.9       675.7    
  42    675.7       569.7       552.2       552.7       561.0       567.6       566.8       564.0       561.1       556.2    
        554.5       554.6       554.9       552.9       554.0       553.9       547.7       545.2       545.5       551.8    
        559.7       572.3       580.4       588.0       593.5       599.1       602.6       607.4       613.5       616.6    
        620.0       622.9       626.6       626.6       626.6       626.6       628.1       629.3       629.7       629.9    
        629.9       629.9       629.9       629.9       629.9       629.9       626.6       626.6       626.1       621.0    
        613.5       609.2       604.0       601.5       597.1       595.7       603.7       604.0       602.4       593.8    
        570.3       567.2       567.6       675.7    
  43    675.7       571.9       555.7       550.3       561.0       564.7       567.6       567.4       563.4       554.1    
        551.2       549.3       550.7       548.2       549.0       552.5       554.7       552.1       554.0       558.9    
        566.7       578.4       585.0       591.2       597.4       602.9       605.4       613.3       615.4       619.7    
        620.7       622.6       623.4       623.4       623.6       624.3       626.6       626.6       626.6       626.6    
        626.7       626.8       627.3       627.8       629.2       629.9       626.6       626.6       626.6       624.5    
        616.7       611.7       607.0       605.1       600.1       590.6       597.0       597.1       597.1       590.8    
        572.3       564.3       567.6       675.7    
  44    675.7       574.0       560.2       553.8       561.0       564.3       564.4       564.3       564.6       549.8    
        547.5       544.9       543.6       541.4       541.9       556.1       561.0       562.8       564.4       567.0    
        576.1       584.6       591.1       596.0       600.7       606.9       611.9       616.7       619.4       623.3    
        623.4       623.4       623.4       623.4       623.4       624.4       626.6       626.6       626.6       626.6    
        626.5       626.6       626.6       624.6       624.7       626.2       626.6       624.7       623.9       624.2    
        617.1       613.5       610.5       609.4       603.7       597.5       591.0       589.2       588.3       587.3    
        574.1       564.3       564.3       675.7    
  45    675.7       570.2       564.4       557.7       561.0       561.0       564.3       560.5       558.2       548.1    
        544.2       540.2       535.0       534.1       534.9       557.7       568.7       574.0       578.6       582.2    
        585.8       594.2       597.3       605.4       610.7       613.1       619.4       620.5       622.8       623.4    
        623.4       623.4       623.4       623.4       623.4       623.4       623.4       623.4       623.5       623.6    
        623.3       622.5       621.7       620.1       620.1       620.6       621.9       620.1       621.2       621.1    
        618.0       616.7       616.1       613.6       609.4       603.0       596.5       580.0       580.5       582.5    
        577.4       564.3       566.5       675.7    
  46    675.7       561.0       564.4       561.0       562.5       561.0       561.0       554.4       552.3       547.6    
        540.0       532.3       527.2       524.9       531.0       564.0       583.8       590.0       593.3       596.9    
        601.9       605.3       609.1       613.1       617.6       622.0       623.6       625.5       626.5       626.4    
        625.9       625.5       624.9       624.3       623.7       623.4       623.4       623.4       623.2       621.8    
        621.2       620.8       617.3       616.8       615.6       615.2       614.3       613.8       614.2       610.4    
        609.5       607.8       609.0       610.4       616.0       609.7       601.1       584.8       577.4       577.0    
        572.9       564.3       570.9       675.7    
  47    675.7       554.5       561.1       564.3       564.3       561.3       561.0       548.4       548.2       544.6    
        536.6       521.6       519.4       521.6       540.1       571.6       586.5       599.5       611.0       613.5    
        616.6       616.5       619.0       623.9       625.2       626.6       626.6       626.6       626.6       626.6    
        626.6       626.6       626.6       626.6       626.6       626.6       626.6       626.6       625.9       625.1    
        624.5       623.7       619.9       617.6       613.6       613.5       610.2       607.0       604.0       599.7    
        602.9       600.4       599.1       600.6       605.9       607.4       603.8       591.3       580.7       571.2    
        564.4       561.6       575.1       675.7    
  48    675.7       557.7       557.7       561.0       562.7       564.3       563.7       552.8       547.8       541.3    
        530.9       513.6       512.8       518.4       542.6       567.3       585.8       594.6       605.7       610.5    
        613.5       614.7       618.3       622.0       625.8       626.4       626.6       626.6       626.6       626.6    
        626.6       626.6       626.6       626.6       626.6       626.6       626.6       626.6       626.6       626.6    
        626.4       624.3       619.5       616.7       613.5       613.5       610.2       607.0       606.8       600.6    
        597.9       592.2       589.4       587.4       592.9       590.9       593.7       593.0       587.2       574.6    
        557.7       554.9       571.9       675.7    
  49    675.7       561.1       557.6       557.2       558.2       561.0       563.2       556.3       547.2       536.5    
        527.8       519.9       531.1       534.3       554.6       568.3       581.9       596.0       605.6       608.4    
        609.6       610.2       613.2       614.4       616.0       617.3       618.4       619.0       619.7       620.0    
        620.1       620.2       620.4       621.0       620.6       621.6       622.7       623.3       623.4       623.4    
        619.2       617.9       615.6       614.4       613.5       613.2       610.2       610.2       609.4       607.0    
        603.9       600.6       596.3       590.8       584.1       575.3       578.1       581.7       586.6       578.1    
        562.4       547.9       559.4       675.7    
  50    675.7       563.9       561.1       551.5       554.5       553.3       556.9       550.6       535.4       531.3    
        531.2       541.6       568.2       574.5       584.9       591.0       597.1       607.0       609.5       608.4    
        607.4       607.0       607.0       607.0       607.0       607.0       607.0       607.0       607.0       607.0    
        607.0       607.2       607.6       607.0       607.4       608.8       609.9       609.0       607.2       605.1    
        605.5       605.4       606.1       606.4       603.7       603.7       603.7       603.7       604.8       606.9    
        608.3       610.2       608.6       603.8       598.9       586.2       579.6       574.1       570.9       572.7    
        567.6       547.9       547.9       675.7    
  51    675.7       554.3       561.1       561.1       553.0       551.1       551.2       536.7       520.7       530.7    
        548.5       571.6       587.7       599.3       606.8       609.9       611.3       613.5       613.5       613.5    
        613.5       610.2       610.2       610.2       610.2       610.2       610.2       610.2       610.2       610.2    
        610.2       610.2       609.5       608.3       607.6       607.1       606.5       603.7       600.9       600.4    
        600.4       600.4       600.4       600.4       597.2       597.1       597.1       594.1       595.8       597.2    
        599.2       600.4       602.0       603.7       605.9       598.9       594.5       580.1       566.4       563.6    
        564.3       551.2       546.6       675.7    
  52    675.7       549.9       552.7       559.4       557.7       550.5       547.0       535.1       522.1       538.0    
        574.2       594.2       596.8       600.4       603.7       604.5       608.8       610.0       610.3       610.7    
        611.7       612.9       613.4       613.5       613.5       613.5       613.5       613.5       613.5       613.5    
        613.5       613.5       613.5       613.4       613.0       612.3       608.6       605.6       603.3       600.7    
        600.4       600.4       600.4       600.3       597.6       597.1       597.1       597.1       593.8       591.4    
        590.7       589.6       590.6       592.8       594.3       593.9       596.4       587.0       572.1       564.3    
        561.6       554.5       547.7       675.7    
  53    675.7       553.1       544.8       552.9       554.5       551.2       551.2       544.1       543.7       557.7    
        587.2       600.4       600.4       600.4       600.4       600.7       603.7       603.7       603.7       604.1    
        605.2       606.3       606.9       607.0       607.2       607.8       607.2       607.2       608.4       609.1    
        609.9       610.2       610.3       610.4       610.7       610.5       608.8       603.3       601.4       600.4    
        600.4       600.4       600.4       600.4       600.4       600.4       599.3       597.6       597.0       594.6    
        593.8       590.6       590.0       585.0       584.5       584.1       587.3       579.8       576.2       570.4    
        563.6       557.7       557.6       675.7    
  54    675.7       559.7       548.4       547.9       548.7       549.6       549.9       554.6       560.4       575.0    
        589.6       603.1       603.6       600.4       600.4       600.4       600.4       600.4       600.8       601.8    
        602.9       603.0       600.4       600.9       601.5       601.1       599.5       599.8       600.1       600.3    
        600.4       601.2       603.7       603.6       601.9       602.7       600.1       597.1       597.1       597.1    
        597.1       597.1       597.1       597.1       597.1       597.4       599.2       600.4       599.6       597.2    
        597.0       594.0       593.4       590.8       585.9       581.7       577.8       570.0       570.5       572.7    
        565.8       561.0       569.3       675.7    
  55    675.7       564.3       557.8       551.3       544.6       546.3       547.4       560.7       576.4       588.1    
        598.9       603.9       603.7       603.7       603.5       601.7       600.5       600.4       600.4       600.4    
        600.4       598.0       597.1       597.1       596.9       594.2       593.9       593.9       593.9       593.9    
        594.0       594.3       594.8       595.3       595.8       596.1       593.9       591.5       590.8       591.4    
        591.8       592.3       593.3       592.7       590.6       589.2       589.9       590.7       593.5       597.1    
        598.9       600.4       597.1       593.9       587.4       584.0       577.1       562.4       564.3       574.1    
        568.3       564.2       577.4       675.7    
  56    675.7       556.5       567.0       559.6       551.0       541.4       539.8       556.6       586.6       600.0    
        603.6       608.0       607.0       605.2       603.7       603.7       607.0       604.0       603.7       603.7    
        603.7       600.4       600.4       600.1       597.9       597.3       598.1       597.9       597.5       597.2    
        597.1       597.1       597.0       596.5       595.9       595.1       593.6       590.7       590.5       590.4    
        590.1       589.1       586.7       584.2       580.7       580.9       577.6       580.5       581.9       586.8    
        588.8       593.1       594.2       596.6       590.5       587.3       580.8       562.5       561.3       574.1    
        570.9       564.4       574.1       675.7    
  57    675.7       547.9       557.8       564.3       559.2       548.1       543.4       561.0       588.7       601.0    
        606.4       607.0       608.0       607.0       607.6       609.7       610.2       609.6       607.8       607.0    
        605.1       603.7       603.7       603.7       603.7       603.9       603.7       603.7       603.7       603.7    
        603.7       603.7       603.7       603.7       603.7       603.6       600.5       600.1       599.5       598.8    
        598.3       597.9       594.2       593.0       590.0       587.1       578.3       576.8       572.8       571.2    
        575.9       577.6       581.3       581.8       583.5       582.6       585.6       571.6       567.6       574.1    
        570.8       567.6       567.6       675.7    
  58    675.7       554.5       547.9       553.5       557.7       557.7       552.6       582.7       600.0       603.9    
        607.0       607.0       610.0       607.0       607.0       607.0       607.0       607.0       607.0       607.0    
        606.7       603.7       603.8       603.7       603.7       603.7       603.7       604.4       606.7       606.9    
        607.0       607.0       607.0       607.0       607.0       607.0       607.0       606.4       603.9       604.1    
        604.6       604.2       603.7       603.7       603.7       602.5       598.7       597.1       594.8       590.6    
        587.8       584.1       579.8       574.3       574.1       574.9       578.0       574.1       574.1       574.1    
        572.0       564.3       573.1       675.7    
  59    675.7       558.0       554.5       548.0       547.9       551.2       564.8       598.0       607.0       610.2    
        610.2       610.5       613.4       610.9       610.2       608.0       607.0       606.7       605.7       604.6    
        603.8       603.6       600.4       600.4       600.4       600.4       600.4       600.4       600.4       600.4    
        600.4       600.3       598.2       597.2       599.4       598.3       597.1       597.2       594.6       594.8    
        595.4       595.9       596.2       594.0       593.9       595.0       596.7       597.2       602.1       602.0    
        603.7       603.6       600.9       597.1       588.1       581.2       573.2       572.2       574.1       574.1    
        584.0       577.2       584.3       675.7    
  60    675.7       583.7       563.0       554.2       558.2       560.6       577.4       597.5       601.3       604.0    
        606.4       607.0       609.1       613.6       615.2       616.7       616.8       616.8       616.8       616.8    
        613.7       614.5       615.5       616.3       616.7       616.8       616.6       616.1       613.9       612.4    
        611.9       611.3       608.9       607.2       607.0       605.1       603.2       602.5       600.1       598.5    
        597.9       597.3       596.6       594.1       592.7       591.1       587.1       584.0       581.1       581.5    
        580.7       582.0       586.5       588.5       593.8       590.0       589.9       577.6       570.5       574.1    
        577.4       595.3       600.4       675.7    
  61    675.7       575.4       576.5       552.7       566.8       594.5       604.7       613.2       610.3       612.1    
        613.5       613.9       613.6       612.6       610.5       607.0       605.8       603.7       603.7       600.4    
        600.4       600.4       600.3       597.1       597.4       597.1       595.2       595.3       595.1       595.6    
        594.0       593.8       593.8       593.9       594.3       594.9       595.3       595.9       596.8       597.1    
        597.2       597.5       598.9       600.1       602.5       601.6       600.4       600.4       600.4       597.1    
        593.6       589.3       587.2       585.1       580.2       570.9       570.9       571.0       568.9       583.5    
        577.4       596.6       597.1       675.7    
  62    675.7       562.5       567.1       581.2       596.8       595.5       588.7       590.5       590.6       595.4    
        597.2       597.9       597.1       596.8       603.5       605.0       608.4       610.1       609.2       607.7    
        609.0       607.9       606.9       606.8       606.3       605.7       605.0       603.0       601.6       600.8    
        600.5       600.4       600.5       600.7       600.5       598.8       599.6       600.2       600.4       600.3    
        600.0       599.2       597.4       596.2       594.2       593.6       587.9       584.4       583.7       580.7    
        578.1       574.7       577.6       580.1       579.4       580.9       584.0       580.7       568.4       578.3    
        574.1       595.7       604.1       675.7    
  63    675.7       578.0       586.1       573.7       570.8       567.6       571.0       577.4       589.3       592.0    
        596.9       600.7       600.8       597.1       595.0       593.8       592.6       589.8       587.6       587.3    
        586.5       584.2       581.6       580.9       577.7       576.1       573.7       573.2       572.2       571.1    
        570.0       569.0       568.3       567.8       567.6       570.5       570.9       570.9       570.9       570.9    
        570.9       570.9       572.7       575.0       577.6       583.4       587.5       590.4       593.6       595.2    
        593.8       594.8       594.6       589.6       585.6       582.4       571.3       564.3       565.0       574.1    
        580.7       602.0       600.5       675.7    
  64    675.7       584.0       586.6       580.5       574.7       570.9       570.9       570.9       573.2       574.1    
        573.0       570.9       572.3       574.1       577.5       580.7       583.2       583.9       580.6       577.2    
        574.0       573.3       572.2       571.3       568.0       567.6       567.7       567.8       568.2       568.6    
        569.2       569.7       570.2       570.6       570.8       571.0       571.6       572.7       572.7       573.4    
        573.7       574.0       572.3       571.1       574.1       574.1       577.4       577.4       577.4       578.2    
        580.6       582.1       584.0       583.5       578.8       574.6       571.6       567.8       573.3       584.0    
        603.7       603.7       597.4       675.7    
  65    675.7       564.3       587.0       593.8       581.6       580.7       584.0       587.0       587.3       590.7    
        592.9       593.8       592.2       587.3       586.6       584.2       583.9       582.9       583.9       584.2    
        584.0       583.4       582.5       581.6       581.0       580.8       581.9       583.7       583.7       583.3    
        582.9       582.3       581.8       581.3       580.8       580.7       580.9       581.4       582.1       582.8    
        583.3       583.6       587.2       587.3       587.9       589.5       593.7       594.5       596.6       597.5    
        600.4       603.3       601.2       599.8       594.2       589.1       582.1       575.2       581.0       587.3    
        567.6       588.3       584.0       675.7    
  66    675.7       675.7       675.7       675.7       675.7       675.7       675.7       675.7       675.7       675.7    
        675.7       675.7       675.7       675.7       675.7       675.7       675.7       675.7       675.7       675.7    
        675.7       675.7       675.7       675.7       675.7       675.7       675.7       675.7       675.7       675.7    
        675.7       675.7       675.7       675.7       675.7       675.7       675.7       675.7       675.7       675.7    
        675.7       675.7       675.7       675.7       675.7       675.7       675.7       675.7       675.7       675.7    
        675.7       675.7       675.7       675.7       675.7       675.7       675.7       675.7       675.7       675.7    
        675.7       675.7       675.7       675.7    

                     CELL THICKNESS (DZ)      FOR LAYER  1 READ ON UNIT  1 USING FORMAT: "           (10G15.6)"
                     ------------------------------------------------------------------------------------------

                     CELL THICKNESS (DZ)      FOR LAYER  2 READ ON UNIT  1 USING FORMAT: "           (10G15.6)"
                     ------------------------------------------------------------------------------------------

                     CELL THICKNESS (DZ)      FOR LAYER  3 READ ON UNIT  1 USING FORMAT: "           (10G15.6)"
                     ------------------------------------------------------------------------------------------

                     CELL THICKNESS (DZ)      FOR LAYER  4 READ ON UNIT  1 USING FORMAT: "           (10G15.6)"
                     ------------------------------------------------------------------------------------------

                     CELL THICKNESS (DZ)      FOR LAYER  5 READ ON UNIT  1 USING FORMAT: "           (10G15.6)"
                     ------------------------------------------------------------------------------------------

                     POROSITY                 FOR LAYER  1 READ ON UNIT  1 USING FORMAT: "           (10G15.6)"
                     ------------------------------------------------------------------------------------------

                     POROSITY                 FOR LAYER  2 READ ON UNIT  1 USING FORMAT: "           (10G15.6)"
                     ------------------------------------------------------------------------------------------

                     POROSITY                 FOR LAYER  3 READ ON UNIT  1 USING FORMAT: "           (10G15.6)"
                     ------------------------------------------------------------------------------------------

                     POROSITY                 FOR LAYER  4 READ ON UNIT  1 USING FORMAT: "           (10G15.6)"
                     ------------------------------------------------------------------------------------------

                     POROSITY                 FOR LAYER  5 READ ON UNIT  1 USING FORMAT: "           (10G15.6)"
                     ------------------------------------------------------------------------------------------

                     CONCN. BOUNDARY ARRAY    FOR LAYER  1 READ ON UNIT  1 USING FORMAT: "              (30I3)"
                     ------------------------------------------------------------------------------------------

                     CONCN. BOUNDARY ARRAY    FOR LAYER  2 READ ON UNIT  1 USING FORMAT: "              (30I3)"
                     ------------------------------------------------------------------------------------------

                     CONCN. BOUNDARY ARRAY    FOR LAYER  3 READ ON UNIT  1 USING FORMAT: "              (30I3)"
                     ------------------------------------------------------------------------------------------

                     CONCN. BOUNDARY ARRAY    FOR LAYER  4 READ ON UNIT  1 USING FORMAT: "              (30I3)"
                     ------------------------------------------------------------------------------------------

                     CONCN. BOUNDARY ARRAY    FOR LAYER  5 READ ON UNIT  1 USING FORMAT: "              (30I3)"
                     ------------------------------------------------------------------------------------------

                     INITIAL CONC.: COMP.  01 FOR LAYER  1 READ ON UNIT  1 USING FORMAT: "           (10G15.6)"
                     ------------------------------------------------------------------------------------------

            1           2           3           4           5           6           7           8           9          10
           11          12          13          14          15          16          17          18          19          20
           21          22          23          24          25          26          27          28          29          30
           31          32          33          34          35          36          37          38          39          40
           41          42          43          44          45          46          47          48          49          50
           51          52          53          54          55          56          57          58          59          60
           61          62          63          64
 ........................................................................................................................
   1    0.000       0.000       0.000       0.000       0.000       0.000       0.000       0.000       0.000       0.000    
        0.000       0.000       0.000       0.000       0.000       0.000       0.000       0.000       0.000       0.000    
        0.000       0.000       0.000       0.000       0.000       0.000       0.000       0.000       0.000       0.000    
        0.000       0.000       0.000       0.000       0.000       0.000       0.000       0.000       0.000       0.000    
        0.000       0.000       0.000       0.000       0.000       0.000       0.000       0.000       0.000       0.000    
        0.000       0.000       0.000       0.000       0.000       0.000       0.000       0.000       0.000       0.000    
        0.000       0.000       0.000       0.000    
   2    0.000       0.000       0.000       0.000       0.000       0.000       0.000       0.000       0.000       0.000    
        0.000       0.000       0.000       0.000       0.000       0.000       0.000       0.000       0.000       0.000    
        0.000       0.000       0.000       0.000       0.000       0.000       0.000       0.000       0.000       0.000    
        0.000       0.000       0.000       0.000       0.000       0.000       0.000       0.000       0.000       0.000    
        0.000       0.000       0.000       0.000       0.000       0.000       0.000       0.000       0.000       0.000    
        0.000       0.000       0.000       0.000       0.000       0.000       0.000       0.000       0.000       0.000    
        0.000       0.000       0.000       0.000    
   3    0.000       0.000       0.000       0.000       0.000       0.000       0.000       0.000       0.000       0.000    
        0.000       0.000       0.000       0.000       0.000       0.000       0.000       0.000       0.000       0.000    
        0.000       0.000       0.000       0.000       0.000       0.000       0.000       0.000       0.000       0.000    
        0.000       0.000       0.000       0.000       0.000       0.000       0.000       0.000       0.000       0.000    
        0.000       0.000       0.000       0.000       0.000       0.000       0.000       0.000       0.000       0.000    
        0.000       0.000       0.000       0.000       0.000       0.000       0.000       0.000       0.000       0.000    
        0.000       0.000       0.000       0.000    
   4    0.000       0.000       0.000       0.000       0.000       0.000       0.000       0.000       0.000       0.000    
        0.000       0.000       0.000       0.000       0.000       0.000       0.000       0.000       0.000       0.000    
        0.000       0.000       0.000       0.000       0.000       0.000       0.000       0.000       0.000       0.000    
        0.000       0.000       0.000       0.000       0.000       0.000       0.000       0.000       0.000       0.000    
        0.000       0.000       0.000       0.000       0.000       0.000       0.000       0.000       0.000       0.000    
        0.000       0.000       0.000       0.000       0.000       0.000       0.000       0.000       0.000       0.000    
        0.000       0.000       0.000       0.000    
   5    0.000       0.000       0.000       0.000       0.000       0.000       0.000       0.000       0.000       0.000    
        0.000       0.000       0.000       0.000       0.000       0.000       0.000       0.000       0.000       0.000    
        0.000       0.000       0.000       0.000       0.000       0.000       0.000       0.000       0.000       0.000    
        0.000       0.000       0.000       0.000       0.000       0.000       0.000       0.000       0.000       0.000    
        0.000       0.000       0.000       0.000       0.000       0.000       0.000       0.000       0.000       0.000    
        0.000       0.000       0.000       0.000       0.000       0.000       0.000       0.000       0.000       0.000    
        0.000       0.000       0.000       0.000    
   6    0.000       0.000       0.000       0.000       0.000       0.000       0.000       0.000       0.000       0.000    
        0.000       0.000       0.000       0.000       0.000       0.000       0.000       0.000       0.000       0.000    
        0.000       0.000       0.000       0.000       0.000       0.000       0.000       0.000       0.000       0.000    
        0.000       0.000       0.000       0.000       0.000       0.000       0.000       0.000       0.000       0.000    
        0.000       0.000       0.000       0.000       0.000       0.000       0.000       0.000       0.000       0.000    
        0.000       0.000       0.000       0.000       0.000       0.000       0.000       0.000       0.000       0.000    
        0.000       0.000       0.000       0.000    
   7    0.000       0.000       0.000       0.000       0.000       0.000       0.000       0.000       0.000       0.000    
        0.000       0.000       0.000       0.000       0.000       0.000       0.000       0.000       0.000       0.000    
        0.000       0.000       0.000       0.000       0.000       0.000       0.000       0.000       0.000       0.000    
        0.000       0.000       0.000       0.000       0.000       0.000       0.000       0.000       0.000       0.000    
        0.000       0.000       0.000       0.000       0.000       0.000       0.000       0.000       0.000       0.000    
        0.000       0.000       0.000       0.000       0.000       0.000       0.000       0.000       0.000       0.000    
        0.000       0.000       0.000       0.000    
   8    0.000       0.000       0.000       0.000       0.000       0.000       0.000       0.000       0.000       0.000    
        0.000       0.000       0.000       0.000       0.000       0.000       0.000       0.000       0.000       0.000    
        0.000       0.000       0.000       0.000       0.000       0.000       0.000       0.000       0.000       0.000    
        0.000       0.000       0.000       0.000       0.000       0.000       0.000       0.000       0.000       0.000    
        0.000       0.000       0.000       0.000       0.000       0.000       0.000       0.000       0.000       0.000    
        0.000       0.000       0.000       0.000       0.000       0.000       0.000       0.000       0.000       0.000    
        0.000       0.000       0.000       0.000    
   9    0.000       0.000       0.000       0.000       0.000       0.000       0.000       0.000       0.000       0.000    
        0.000       0.000       0.000       0.000       0.000       0.000       0.000       0.000       0.000       0.000    
        0.000       0.000       0.000       0.000       0.000       0.000       0.000       0.000       0.000       0.000    
        0.000       0.000       0.000       0.000       0.000       0.000       0.000       0.000       0.000       0.000    
        0.000       0.000       0.000       0.000       0.000       0.000       0.000       0.000       0.000       0.000    
        0.000       0.000       0.000       0.000       0.000       0.000       0.000       0.000       0.000       0.000    
        0.000       0.000       0.000       0.000    
  10    0.000       0.000       0.000       0.000       0.000       0.000       0.000       0.000       0.000       0.000    
        0.000       0.000       0.000       0.000       0.000       0.000       0.000       0.000       0.000       0.000    
        0.000       0.000       0.000       0.000       0.000       0.000       0.000       0.000       0.000       0.000    
        0.000       0.000       0.000       0.000       0.000       0.000       0.000       0.000       0.000       0.000    
        0.000       0.000       0.000       0.000       0.000       0.000       0.000       0.000       0.000       0.000    
        0.000       0.000       0.000       0.000       0.000       0.000       0.000       0.000       0.000       0.000    
        0.000       0.000       0.000       0.000    
  11    0.000       0.000       0.000       0.000       0.000       0.000       0.000       0.000      9.3382E-12  1.6322E-09
       1.0331E-07  2.6768E-06  4.4301E-05  3.8788E-04  7.6841E-04  7.5497E-04  1.1263E-03  1.2893E-03  1.3151E-03  1.4948E-03
       1.5779E-03  1.7304E-03  1.8895E-03  2.1273E-03  2.2686E-03  2.3713E-03  2.4493E-03  2.5117E-03  2.5762E-03  2.6315E-03
       2.6752E-03  2.7079E-03  2.7289E-03  2.7369E-03  2.7227E-03  2.6739E-03  2.5893E-03  2.4715E-03  2.3335E-03  2.2102E-03
       2.1103E-03  2.0278E-03  1.9385E-03  1.8358E-03  1.7515E-03  1.4859E-03  1.1111E-03  6.6795E-04  2.9544E-04  1.7434E-04
       1.1924E-05 -5.1769E-08  2.7117E-08  8.3511E-10  9.3251E-12   0.000       0.000       0.000       0.000       0.000    
        0.000       0.000       0.000       0.000    
  12    0.000       0.000       0.000       0.000       0.000       0.000       0.000       0.000      7.8138E-11  1.0691E-08
       5.3429E-07  1.0877E-05  1.4425E-04  5.1801E-04  6.3368E-04  1.3922E-03  1.5418E-03  1.5301E-03  1.5438E-03  1.5192E-03
       1.9991E-03  2.5822E-03  3.1579E-03  3.6904E-03  4.0992E-03  4.3774E-03  4.5507E-03  4.6609E-03  4.7369E-03  4.7563E-03
       4.7290E-03  4.6683E-03  4.5848E-03  4.4873E-03  4.3866E-03  4.3006E-03  4.2302E-03  4.1476E-03  3.9725E-03  3.6762E-03
[...]
        20.00       20.00       20.00       20.00       20.00       20.00       20.00       20.00       20.00       20.00    
        20.00       20.00       20.00       20.00       20.00       20.00       20.00       20.00       20.00       20.00    
        20.00       20.00       20.00       20.00       20.00       20.00       20.00       20.00       20.00       20.00    
        20.00       20.00       20.00       20.00       20.00       20.00       10.00       10.00       10.00       10.00    
        10.00       10.00       10.00       10.00    
  57    10.00       10.00       10.00       10.00       10.00       10.00       10.00       10.00       10.00       10.00    
        10.00       10.00       10.00       10.00       10.00       10.00       10.00       10.00       10.00       10.00    
        10.00       10.00       10.00       10.00       10.00       10.00       10.00       10.00       10.00       10.00    
        10.00       10.00       10.00       10.00       10.00       10.00       10.00       10.00       10.00       10.00    
        10.00       10.00       10.00       10.00       10.00       10.00       10.00       10.00       10.00       10.00    
        10.00       10.00       10.00       10.00       10.00       10.00       10.00       10.00       10.00       10.00    
        10.00       10.00       10.00       10.00    
  58    10.00       10.00       10.00       10.00       10.00       10.00       10.00       10.00       10.00       10.00    
        10.00       10.00       10.00       10.00       10.00       10.00       10.00       10.00       10.00       10.00    
        10.00       10.00       10.00       10.00       10.00       10.00       10.00       10.00       10.00       10.00    
        10.00       10.00       10.00       10.00       10.00       10.00       10.00       10.00       10.00       10.00    
        10.00       10.00       10.00       10.00       10.00       10.00       10.00       10.00       10.00       10.00    
        10.00       10.00       10.00       10.00       10.00       10.00       10.00       10.00       10.00       10.00    
        10.00       10.00       10.00       10.00    
  59    10.00       10.00       10.00       10.00       10.00       10.00       10.00       10.00       10.00       10.00    
        10.00       10.00       10.00       10.00       10.00       10.00       10.00       10.00       10.00       10.00    
        10.00       10.00       10.00       10.00       10.00       10.00       10.00       10.00       10.00       10.00    
        10.00       10.00       10.00       10.00       10.00       10.00       10.00       10.00       10.00       10.00    
        10.00       10.00       10.00       10.00       10.00       10.00       10.00       10.00       10.00       10.00    
        10.00       10.00       10.00       10.00       10.00       10.00       10.00       10.00       10.00       10.00    
        10.00       10.00       10.00       10.00    
  60    10.00       10.00       10.00       10.00       10.00       10.00       10.00       10.00       10.00       10.00    
        10.00       10.00       10.00       10.00       10.00       10.00       10.00       10.00       10.00       10.00    
        10.00       10.00       10.00       10.00       10.00       10.00       10.00       10.00       10.00       10.00    
        10.00       10.00       10.00       10.00       10.00       10.00       10.00       10.00       10.00       10.00    
        10.00       10.00       10.00       10.00       10.00       10.00       10.00       10.00       10.00       10.00    
        10.00       10.00       10.00       10.00       10.00       10.00       10.00       10.00       10.00       10.00    
        10.00       10.00       10.00       10.00    
  61    10.00       10.00       10.00       10.00       10.00       10.00       10.00       10.00       10.00       10.00    
        10.00       10.00       10.00       10.00       10.00       10.00       10.00       10.00       10.00       10.00    
        10.00       10.00       10.00       10.00       10.00       10.00       10.00       10.00       10.00       10.00    
        10.00       10.00       10.00       10.00       10.00       10.00       10.00       10.00       10.00       10.00    
        10.00       10.00       10.00       10.00       10.00       10.00       10.00       10.00       10.00       10.00    
        10.00       10.00       10.00       10.00       10.00       10.00       10.00       10.00       10.00       10.00    
        10.00       10.00       10.00       10.00    
  62    10.00       10.00       10.00       10.00       10.00       10.00       10.00       10.00       10.00       10.00    
        10.00       10.00       10.00       10.00       10.00       10.00       10.00       10.00       10.00       10.00    
        10.00       10.00       10.00       10.00       10.00       10.00       10.00       10.00       10.00       10.00    
        10.00       10.00       10.00       10.00       10.00       10.00       10.00       10.00       10.00       10.00    
        10.00       10.00       10.00       10.00       10.00       10.00       10.00       10.00       10.00       10.00    
        10.00       10.00       10.00       10.00       10.00       10.00       10.00       10.00       10.00       10.00    
        10.00       10.00       10.00       10.00    
  63    10.00       10.00       10.00       10.00       10.00       10.00       10.00       10.00       10.00       10.00    
        10.00       10.00       10.00       10.00       10.00       10.00       10.00       10.00       10.00       10.00    
        10.00       10.00       10.00       10.00       10.00       10.00       10.00       10.00       10.00       10.00    
        10.00       10.00       10.00       10.00       10.00       10.00       10.00       10.00       10.00       10.00    
        10.00       10.00       10.00       10.00       10.00       10.00       10.00       10.00       10.00       10.00    
        10.00       10.00       10.00       10.00       10.00       10.00       10.00       10.00       10.00       10.00    
        10.00       10.00       10.00       10.00    
  64    10.00       10.00       10.00       10.00       10.00       10.00       10.00       10.00       10.00       10.00    
        10.00       10.00       10.00       10.00       10.00       10.00       10.00       10.00       10.00       10.00    
        10.00       10.00       10.00       10.00       10.00       10.00       10.00       10.00       10.00       10.00    
        10.00       10.00       10.00       10.00       10.00       10.00       10.00       10.00       10.00       10.00    
        10.00       10.00       10.00       10.00       10.00       10.00       10.00       10.00       10.00       10.00    
        10.00       10.00       10.00       10.00       10.00       10.00       10.00       10.00       10.00       10.00    
        10.00       10.00       10.00       10.00    
  65    10.00       10.00       10.00       10.00       10.00       10.00       10.00       10.00       10.00       10.00    
        10.00       10.00       10.00       10.00       10.00       10.00       10.00       10.00       10.00       10.00    
        10.00       10.00       10.00       10.00       10.00       10.00       10.00       10.00       10.00       10.00    
        10.00       10.00       10.00       10.00       10.00       10.00       10.00       10.00       10.00       10.00    
        10.00       10.00       10.00       10.00       10.00       10.00       10.00       10.00       10.00       10.00    
        10.00       10.00       10.00       10.00       10.00       10.00       10.00       10.00       10.00       10.00    
        10.00       10.00       10.00       10.00    
  66    10.00       10.00       10.00       10.00       10.00       10.00       10.00       10.00       10.00       10.00    
        10.00       10.00       10.00       10.00       10.00       10.00       10.00       10.00       10.00       10.00    
        10.00       10.00       10.00       10.00       10.00       10.00       10.00       10.00       10.00       10.00    
        10.00       10.00       10.00       10.00       10.00       10.00       10.00       10.00       10.00       10.00    
        10.00       10.00       10.00       10.00       10.00       10.00       10.00       10.00       10.00       10.00    
        10.00       10.00       10.00       10.00       10.00       10.00       10.00       10.00       10.00       10.00    
        10.00       10.00       10.00       10.00    
                                       H. TRANS./LONG. DISP.    =  0.1000000    
                                       V. TRANS./LONG. DISP.    =  0.1000000E-01
                                       DIFFUSION COEFFICIENT    =   0.000000    


 SORPTION AND 1ST ORDER RATE REACTION PARAMETERS
 -----------------------------------------------

                                       BULK DENSITY (RHOB)      =   45.66000     FOR LAYER  1
                                       BULK DENSITY (RHOB)      =   45.66000     FOR LAYER  2
                                       BULK DENSITY (RHOB)      =   45.66000     FOR LAYER  3
                                       BULK DENSITY (RHOB)      =   45.66000     FOR LAYER  4
                                       BULK DENSITY (RHOB)      =   45.66000     FOR LAYER  5
                                       1ST SORP. COEF. COMP. 01 =  0.8475000E-02 FOR LAYER  1
                                       1ST SORP. COEF. COMP. 01 =  0.8475000E-02 FOR LAYER  2
                                       1ST SORP. COEF. COMP. 01 =  0.8475000E-02 FOR LAYER  3
                                       1ST SORP. COEF. COMP. 01 =  0.8475000E-02 FOR LAYER  4
                                       1ST SORP. COEF. COMP. 01 =  0.8475000E-02 FOR LAYER  5
                                       1ST SORP. COEF. COMP. 02 =  0.2824860     FOR LAYER  1
                                       1ST SORP. COEF. COMP. 02 =  0.2824860     FOR LAYER  2
                                       1ST SORP. COEF. COMP. 02 =  0.2824860     FOR LAYER  3
                                       1ST SORP. COEF. COMP. 02 =  0.2824860     FOR LAYER  4
                                       1ST SORP. COEF. COMP. 02 =  0.2824860     FOR LAYER  5
                                       2ND SORP. COEF. COMP. 01 =   0.000000     FOR LAYER  1
                                       2ND SORP. COEF. COMP. 01 =   0.000000     FOR LAYER  2
                                       2ND SORP. COEF. COMP. 01 =   0.000000     FOR LAYER  3
                                       2ND SORP. COEF. COMP. 01 =   0.000000     FOR LAYER  4
                                       2ND SORP. COEF. COMP. 01 =   0.000000     FOR LAYER  5
                                       2ND SORP. COEF. COMP. 02 =   0.000000     FOR LAYER  1
                                       2ND SORP. COEF. COMP. 02 =   0.000000     FOR LAYER  2
                                       2ND SORP. COEF. COMP. 02 =   0.000000     FOR LAYER  3
                                       2ND SORP. COEF. COMP. 02 =   0.000000     FOR LAYER  4
                                       2ND SORP. COEF. COMP. 02 =   0.000000     FOR LAYER  5



                                               SOLUTION BY THE GENERALIZED CONJUGATE GRADIENT METHOD
                                               -----------------------------------------------------
                                     MAXIMUM OUTER ITERATIONS ALLOWED FOR CLOSURE =        1
                                     MAXIMUM INNER ITERATIONS ALLOWED FOR CLOSURE =       50
                                                    PRECONDITIONING TYPE SELECTED =    3
                                                           ACCELERATION PARAMETER =     1.0000    
                                       CONCENTRATION CHANGE CRITERION FOR CLOSURE =    0.10000E-03
                                       GCG CONCENTRATION CHANGE PRINTOUT INTERVAL =      999


                                   ++++++++++++++++++++++++++++++++++++++++++++++++++++++++++++++
                                                       STRESS PERIOD NO.  001
                                   ++++++++++++++++++++++++++++++++++++++++++++++++++++++++++++++


 LENGTH OF CURRENT STRESS PERIOD =   5.000000    
 NUMBER OF TIME STEPS FOR CURRENT STRESS PERIOD =    1
 TIME STEP MULTIPLIER USED IN FLOW SOLUTION =   1.000000    
 USER-SPECIFIED TRANSPORT STEPSIZE =   0.000000      yr
 MAXIMUM NUMBER OF TRANSPORT STEPS ALLOWED  IN ONE FLOW TIME STEP =     50000
 MULTIPLIER FOR SUCCESSIVE TRANSPORT STEPS  [USED IN IMPLICIT SCHEMES] =     1.100
 MAXIMUM TRANSPORT STEP SIZE  [USED IN IMPLICIT SCHEMES] =  0.1000000      yr

 CONCENTRATION OF RECHARGE FLUXES WILL BE READ IN STRESS PERIOD  1
                                       RECH. CONC. COMP.  01    =   0.000000    
                                       RECH. CONC. COMP.  02    =   0.000000    

 NO. OF POINT SINKS/SOURCES OF SPECIFIED CONCONCENTRATIONS =    0 IN STRESS PERIOD  1


                                          ================================================
                                                         TIME STEP NO.  001
                                          ================================================

 FROM TIME =   0.0000     TO    5.0000    


                    "THKSAT          " FLOW TERMS FOR TIME STEP  1, STRESS PERIOD  1 READ UNFORMATTED ON UNIT 10
                    --------------------------------------------------------------------------------------------

                    "QXX             " FLOW TERMS FOR TIME STEP  1, STRESS PERIOD  1 READ UNFORMATTED ON UNIT 10
                    --------------------------------------------------------------------------------------------

                    "QYY             " FLOW TERMS FOR TIME STEP  1, STRESS PERIOD  1 READ UNFORMATTED ON UNIT 10
                    --------------------------------------------------------------------------------------------

                    "QZZ             " FLOW TERMS FOR TIME STEP  1, STRESS PERIOD  1 READ UNFORMATTED ON UNIT 10
                    --------------------------------------------------------------------------------------------

                    "STO             " FLOW TERMS FOR TIME STEP  1, STRESS PERIOD  1 READ UNFORMATTED ON UNIT 10
                    --------------------------------------------------------------------------------------------

 MAXIMUM STEPSIZE DURING WHICH ANY PARTICLE CANNOT MOVE MORE THAN ONE CELL
 = 0.7301E-03(WHEN MIN. R.F.=1)  AT K=   1, I=  27, J=  31

 MAXIMUM STEPSIZE WHICH MEETS STABILITY CRITERION OF THE ADVECTION TERM
 (FOR PURE FINITE-DIFFERENCE OPTION, MIXELM=0) 
 = 0.2628E-03(WHEN MIN. R.F.=1)  AT K=   1, I=  27, J=  30

                    "CNH             " FLOW TERMS FOR TIME STEP  1, STRESS PERIOD  1 READ UNFORMATTED ON UNIT 10
                    --------------------------------------------------------------------------------------------

                    "WEL             " FLOW TERMS FOR TIME STEP  1, STRESS PERIOD  1 READ UNFORMATTED ON UNIT 10
                    --------------------------------------------------------------------------------------------

                    "RCH             " FLOW TERMS FOR TIME STEP  1, STRESS PERIOD  1 READ UNFORMATTED ON UNIT 10
                    --------------------------------------------------------------------------------------------


 TOTAL NUMBER OF POINT SOURCES/SINKS PRESENT IN THE FLOW MODEL =     6

 MAXIMUM STEPSIZE WHICH MEETS STABILITY CRITERION OF THE SINK & SOURCE TERM
 = 0.1362E-01(WHEN MIN. R.F.=1)  AT K=   1, I=  46, J=  52

 MAXIMUM STEPSIZE WHICH MEETS STABILITY CRITERION OF THE DISPERSION TERM
 = 0.3764E-03(WHEN MIN. R.F.=1)  AT K=   1, I=  27, J=  30


     1 CALLS TO GCG PACKAGE FOR TRANSPORT TIME STEP   1 IN FLOW TIME STEP   1 STRESS PERIOD   1
     2 TOTAL ITERATIONS


     1 CALLS TO GCG PACKAGE FOR TRANSPORT TIME STEP   1 IN FLOW TIME STEP   1 STRESS PERIOD   1
     2 TOTAL ITERATIONS
     1 CALLS TO GCG PACKAGE FOR TRANSPORT TIME STEP   2 IN FLOW TIME STEP   1 STRESS PERIOD   1
     2 TOTAL ITERATIONS
     1 CALLS TO GCG PACKAGE FOR TRANSPORT TIME STEP   2 IN FLOW TIME STEP   1 STRESS PERIOD   1
     2 TOTAL ITERATIONS
     1 CALLS TO GCG PACKAGE FOR TRANSPORT TIME STEP   3 IN FLOW TIME STEP   1 STRESS PERIOD   1
     2 TOTAL ITERATIONS
     1 CALLS TO GCG PACKAGE FOR TRANSPORT TIME STEP   3 IN FLOW TIME STEP   1 STRESS PERIOD   1
     2 TOTAL ITERATIONS
     1 CALLS TO GCG PACKAGE FOR TRANSPORT TIME STEP   4 IN FLOW TIME STEP   1 STRESS PERIOD   1
     2 TOTAL ITERATIONS
     1 CALLS TO GCG PACKAGE FOR TRANSPORT TIME STEP   4 IN FLOW TIME STEP   1 STRESS PERIOD   1
     2 TOTAL ITERATIONS
     1 CALLS TO GCG PACKAGE FOR TRANSPORT TIME STEP   5 IN FLOW TIME STEP   1 STRESS PERIOD   1
     2 TOTAL ITERATIONS
     1 CALLS TO GCG PACKAGE FOR TRANSPORT TIME STEP   5 IN FLOW TIME STEP   1 STRESS PERIOD   1
     2 TOTAL ITERATIONS
     1 CALLS TO GCG PACKAGE FOR TRANSPORT TIME STEP   6 IN FLOW TIME STEP   1 STRESS PERIOD   1
     2 TOTAL ITERATIONS
     1 CALLS TO GCG PACKAGE FOR TRANSPORT TIME STEP   6 IN FLOW TIME STEP   1 STRESS PERIOD   1
     2 TOTAL ITERATIONS
     1 CALLS TO GCG PACKAGE FOR TRANSPORT TIME STEP   7 IN FLOW TIME STEP   1 STRESS PERIOD   1
     2 TOTAL ITERATIONS
     1 CALLS TO GCG PACKAGE FOR TRANSPORT TIME STEP   7 IN FLOW TIME STEP   1 STRESS PERIOD   1
     2 TOTAL ITERATIONS
     1 CALLS TO GCG PACKAGE FOR TRANSPORT TIME STEP   8 IN FLOW TIME STEP   1 STRESS PERIOD   1
     2 TOTAL ITERATIONS
     1 CALLS TO GCG PACKAGE FOR TRANSPORT TIME STEP   8 IN FLOW TIME STEP   1 STRESS PERIOD   1
     2 TOTAL ITERATIONS
     1 CALLS TO GCG PACKAGE FOR TRANSPORT TIME STEP   9 IN FLOW TIME STEP   1 STRESS PERIOD   1
     2 TOTAL ITERATIONS
     1 CALLS TO GCG PACKAGE FOR TRANSPORT TIME STEP   9 IN FLOW TIME STEP   1 STRESS PERIOD   1
     2 TOTAL ITERATIONS
     1 CALLS TO GCG PACKAGE FOR TRANSPORT TIME STEP  10 IN FLOW TIME STEP   1 STRESS PERIOD   1
     2 TOTAL ITERATIONS
     1 CALLS TO GCG PACKAGE FOR TRANSPORT TIME STEP  10 IN FLOW TIME STEP   1 STRESS PERIOD   1
     2 TOTAL ITERATIONS
     1 CALLS TO GCG PACKAGE FOR TRANSPORT TIME STEP  11 IN FLOW TIME STEP   1 STRESS PERIOD   1
     2 TOTAL ITERATIONS
     1 CALLS TO GCG PACKAGE FOR TRANSPORT TIME STEP  11 IN FLOW TIME STEP   1 STRESS PERIOD   1
     2 TOTAL ITERATIONS
     1 CALLS TO GCG PACKAGE FOR TRANSPORT TIME STEP  12 IN FLOW TIME STEP   1 STRESS PERIOD   1
     2 TOTAL ITERATIONS
     1 CALLS TO GCG PACKAGE FOR TRANSPORT TIME STEP  12 IN FLOW TIME STEP   1 STRESS PERIOD   1
     2 TOTAL ITERATIONS
     1 CALLS TO GCG PACKAGE FOR TRANSPORT TIME STEP  13 IN FLOW TIME STEP   1 STRESS PERIOD   1
     2 TOTAL ITERATIONS
     1 CALLS TO GCG PACKAGE FOR TRANSPORT TIME STEP  13 IN FLOW TIME STEP   1 STRESS PERIOD   1
     2 TOTAL ITERATIONS
     1 CALLS TO GCG PACKAGE FOR TRANSPORT TIME STEP  14 IN FLOW TIME STEP   1 STRESS PERIOD   1
     2 TOTAL ITERATIONS
     1 CALLS TO GCG PACKAGE FOR TRANSPORT TIME STEP  14 IN FLOW TIME STEP   1 STRESS PERIOD   1
     2 TOTAL ITERATIONS
     1 CALLS TO GCG PACKAGE FOR TRANSPORT TIME STEP  15 IN FLOW TIME STEP   1 STRESS PERIOD   1
     2 TOTAL ITERATIONS
     1 CALLS TO GCG PACKAGE FOR TRANSPORT TIME STEP  15 IN FLOW TIME STEP   1 STRESS PERIOD   1
     2 TOTAL ITERATIONS
     1 CALLS TO GCG PACKAGE FOR TRANSPORT TIME STEP  16 IN FLOW TIME STEP   1 STRESS PERIOD   1
     2 TOTAL ITERATIONS
