                                  MODFLOW-2000
      U.S. GEOLOGICAL SURVEY MODULAR FINITE-DIFFERENCE GROUND-WATER FLOW MODEL
                             VERSION 1.10 07/26/2002


 This model run combines GLOBAL and LIST output into this single file.

 GLOBAL LISTING FILE: optdemo.lst
                         UNIT   26

 OPENING TEST.ba6
 FILE TYPE:BAS6   UNIT    1   STATUS:OLD    
 FORMAT:FORMATTED              ACCESS:SEQUENTIAL          

 OPENING TEST.bc6
 FILE TYPE:BCF6   UNIT   11   STATUS:OLD    
 FORMAT:FORMATTED              ACCESS:SEQUENTIAL          

 OPENING optdemo.oc
 FILE TYPE:OC   UNIT   10   STATUS:OLD    
 FORMAT:FORMATTED              ACCESS:SEQUENTIAL          

 OPENING optdemo.pcg
 FILE TYPE:PCG   UNIT   12   STATUS:OLD    
 FORMAT:FORMATTED              ACCESS:SEQUENTIAL          

 OPENING optdemo.wel
 FILE TYPE:WEL   UNIT   13   STATUS:OLD    
 FORMAT:FORMATTED              ACCESS:SEQUENTIAL          

 OPENING optdemo.rch
 FILE TYPE:RCH   UNIT   20   STATUS:OLD    
 FORMAT:FORMATTED              ACCESS:SEQUENTIAL          

 OPENING optdemo.LMT
 FILE TYPE:LMT6   UNIT   29   STATUS:OLD    
 FORMAT:FORMATTED              ACCESS:SEQUENTIAL          

 OPENING TEST.dis
 FILE TYPE:DIS   UNIT   14   STATUS:OLD    
 FORMAT:FORMATTED              ACCESS:SEQUENTIAL          

 THE FREE FORMAT OPTION HAS BEEN SELECTED

 DISCRETIZATION INPUT DATA READ FROM UNIT   14
    5 LAYERS       132 ROWS       125 COLUMNS
    4 STRESS PERIOD(S) IN SIMULATION
 MODEL TIME UNIT IS YEARS
 MODEL LENGTH UNIT IS UNDEFINED
 THE GROUND-WATER TRANSPORT PROCESS IS INACTIVE

 THE OBSERVATION PROCESS IS INACTIVE
 THE SENSITIVITY PROCESS IS INACTIVE
 THE PARAMETER-ESTIMATION PROCESS IS INACTIVE

 MODE: FORWARD

  Confining bed flag for each layer:
   0   0   0   0   0

     742757  ELEMENTS OF GX ARRAY USED OUT OF     742757
      82500  ELEMENTS OF GZ ARRAY USED OUT OF      82500
      82500  ELEMENTS OF IG ARRAY USED OUT OF      82500



                               DELR
 READING ON UNIT   14 WITH FORMAT: (10F13.0)           
   556.67       556.67       556.67       555.99       505.45       459.50       417.72       379.75       345.23       313.84    
   285.31       259.37       235.79       214.36       194.87       177.16       161.05       146.41       133.10       121.00    
   110.00       100.00       100.00       110.00       116.24       116.24       116.24       116.24       103.16       97.436    
   88.578       80.525       73.205       66.550       60.500       55.000       50.000       50.000       54.811       54.811    
   54.811       54.811       54.811       43.721       43.721       43.721       40.263       36.603       33.275       30.250    
   27.500       25.000       21.637       21.637       21.637       26.205       26.205       25.000       24.583       24.583    
   24.583       24.583       24.583       24.583       25.000       27.500       30.250       33.275       36.603       37.916    
   37.916       37.916       37.916       37.916       37.916       36.603       33.275       30.250       27.500       25.000    
   22.896       22.896       22.896       28.094       37.368       40.726       55.000       60.500       66.550       73.205    
   80.525       88.130       88.130       88.130       88.130       88.130       130.11       130.11       130.11       130.11    
   121.00       110.00       100.00       110.00       121.00       133.10       146.41       161.05       177.16       194.87    
   214.36       235.79       259.37       285.31       313.84       345.23       379.75       417.72       459.50       505.45    
   555.99       611.59       660.71       660.71       660.71    



                               DELC
 READING ON UNIT   14 WITH FORMAT: (10F13.0)           
   513.28       513.28       513.28       513.28       513.28       492.49       447.72       407.01       370.01       336.37    
   305.80       278.00       252.72       229.75       208.86       189.87       172.61       156.92       142.66       129.69    
   117.90       107.18       97.436       88.578       80.525       73.205       66.550       60.500       55.000       50.000    
   50.000       55.000       60.500       66.550       58.355       49.045       39.864       39.864       39.864       36.603    
   33.275       30.250       27.500       25.000       24.803       24.803       24.803       24.803       24.803       24.803    
   24.803       24.803       25.000       25.690       25.690       25.690       25.690       25.690       25.690       25.000    
   24.796       24.796       24.796       24.796       24.796       24.796       24.796       24.796       25.000       27.500    
   30.250       33.275       36.603       40.263       44.289       46.584       46.584       46.584       56.886       56.886    
   56.886       56.886       56.886       55.000       50.000       55.000       60.500       66.550       73.205       80.525    
   88.578       97.436       101.47       101.47       101.47       101.47       101.47       147.88       147.88       147.88    
   146.41       133.10       121.00       110.00       100.00       90.914       90.914       90.914       90.914       100.00    
   110.00       121.00       133.10       146.41       161.05       177.16       194.87       214.36       235.79       259.37    
   285.31       313.84       345.23       379.75       417.72       459.50       505.45       555.99       611.59       647.89    
   647.89       647.89    

 TOP ELEVATION OF LAYER 1 =   999.000    



             MODEL LAYER BOTTOM EL. FOR LAYER   1
 READING ON UNIT   14 WITH FORMAT: (10F13.0)           



             MODEL LAYER BOTTOM EL. FOR LAYER   2
 READING ON UNIT   14 WITH FORMAT: (10F13.0)           



             MODEL LAYER BOTTOM EL. FOR LAYER   3
 READING ON UNIT   14 WITH FORMAT: (10F13.0)           



             MODEL LAYER BOTTOM EL. FOR LAYER   4
 READING ON UNIT   14 WITH FORMAT: (10F13.0)           



             MODEL LAYER BOTTOM EL. FOR LAYER   5
 READING ON UNIT   14 WITH FORMAT: (10F13.0)           


 STRESS PERIOD     LENGTH       TIME STEPS     MULTIPLIER FOR DELT    SS FLAG
 ----------------------------------------------------------------------------
        1         5.000000          1                    1.000         TR
        2         5.000000          1                    1.000         TR
        3         5.000000          1                    1.000         TR
        4         5.000000          1                    1.000         TR

 TRANSIENT SIMULATION




 PCG2 -- CONJUGATE GRADIENT SOLUTION PACKAGE, VERSION 2.4, 12/29/98
 MAXIMUM OF     50 CALLS OF SOLUTION ROUTINE
 MAXIMUM OF     30 INTERNAL ITERATIONS PER CALL TO SOLUTION ROUTINE
 MATRIX PRECONDITIONING TYPE :    1
     250500 ELEMENTS IN X ARRAY ARE USED BY PCG
      10500 ELEMENTS IN IX ARRAY ARE USED BY PCG
     165000 ELEMENTS IN Z ARRAY ARE USED BY PCG

     250500  ELEMENTS OF X ARRAY USED OUT OF     250500
     165000  ELEMENTS OF Z ARRAY USED OUT OF     165000
      10500  ELEMENTS OF IX ARRAY USED OUT OF      10500
          0  ELEMENTS OF XHS ARRAY USED OUT OF          1



                                    SOLUTION BY THE CONJUGATE-GRADIENT METHOD
                                   -------------------------------------------
                    MAXIMUM NUMBER OF CALLS TO PCG ROUTINE =       50
                        MAXIMUM ITERATIONS PER CALL TO PCG =       30
                               MATRIX PRECONDITIONING TYPE =        1
        RELAXATION FACTOR (ONLY USED WITH PRECOND. TYPE 1) =    0.10000E+01
 PARAMETER OF POLYNOMIAL PRECOND. = 2 (2) OR IS CALCULATED :        2
                         HEAD CHANGE CRITERION FOR CLOSURE =    0.10000E-03
                     RESIDUAL CHANGE CRITERION FOR CLOSURE =    0.10000E+01
            PCG HEAD AND RESIDUAL CHANGE PRINTOUT INTERVAL =      999
     PRINTING FROM SOLVER IS LIMITED(1) OR SUPPRESSED (>1) =        0
                                         DAMPING PARAMETER =    0.10000E+01
 
 #Run 94m same as 92m but IF flows adjusted for SP #20; 8/24/00; RS              
 #Adapted for optimization demo project; 1/18/2001;                              
 THE FREE FORMAT OPTION HAS BEEN SELECTED
    5 LAYERS       132 ROWS       125 COLUMNS
    4 STRESS PERIOD(S) IN SIMULATION

 BAS6 -- BASIC PACKAGE, VERSION 6, 1/11/2000 INPUT READ FROM UNIT    1
         25 ELEMENTS IN IR ARRAY ARE USED BY BAS

 BCF6 -- BLOCK-CENTERED FLOW PACKAGE, VERSION 6, 1/11/2000
         INPUT READ FROM UNIT 11
 TRANSIENT SIMULATION
 HEAD AT CELLS THAT CONVERT TO DRY=  -888.00    
 WETTING CAPABILITY IS NOT ACTIVE
      LAYER  LAYER-TYPE CODE     INTERBLOCK T
      --------------------------------------------
         1            1          0 -- HARMONIC    
         2            3          0 -- HARMONIC    
         3            3          0 -- HARMONIC    
         4            3          0 -- HARMONIC    
         5            3          0 -- HARMONIC    
     231005 ELEMENTS IN RX ARRAY ARE USED BY BCF

 WEL6 -- WELL PACKAGE, VERSION 6, 1/11/2000 INPUT READ FROM UNIT   13
 No named parameters
 MAXIMUM OF   1000 ACTIVE WELLS AT ONE TIME
       4000 ELEMENTS IN RX ARRAY ARE USED BY WEL

 RCH6 -- RECHARGE PACKAGE, VERSION 6, 1/11/2000 INPUT READ FROM UNIT   20
 No named parameters
 OPTION 3 -- RECHARGE TO HIGHEST ACTIVE NODE IN EACH VERTICAL COLUMN
      16500 ELEMENTS IN RX ARRAY ARE USED BY RCH
      16500 ELEMENTS IN IR ARRAY ARE USED BY RCH

     251505  ELEMENTS OF RX ARRAY USED OUT OF     251505
      16525  ELEMENTS OF IR ARRAY USED OUT OF      16525
1
 #Run 94m same as 92m but IF flows adjusted for SP #20; 8/24/00; RS              
 #Adapted for optimization demo project; 1/18/2001;                              



                     BOUNDARY ARRAY FOR LAYER   1
 READING ON UNIT    1 WITH FORMAT: (20I4)              



                     BOUNDARY ARRAY FOR LAYER   2
 READING ON UNIT    1 WITH FORMAT: (20I4)              



                     BOUNDARY ARRAY FOR LAYER   3
 READING ON UNIT    1 WITH FORMAT: (20I4)              



                     BOUNDARY ARRAY FOR LAYER   4
 READING ON UNIT    1 WITH FORMAT: (20I4)              



                     BOUNDARY ARRAY FOR LAYER   5
 READING ON UNIT    1 WITH FORMAT: (20I4)              

 AQUIFER HEAD WILL BE SET TO -999.00     AT ALL NO-FLOW NODES (IBOUND=0).



                       INITIAL HEAD FOR LAYER   1
 READING ON UNIT    1 WITH FORMAT: (10F13.0)           

            1           2           3           4           5           6           7           8           9          10
           11          12          13          14          15          16          17          18          19          20
           21          22          23          24          25          26          27          28          29          30
           31          32          33          34          35          36          37          38          39          40
           41          42          43          44          45          46          47          48          49          50
           51          52          53          54          55          56          57          58          59          60
           61          62          63          64          65          66          67          68          69          70
           71          72          73          74          75          76          77          78          79          80
           81          82          83          84          85          86          87          88          89          90
           91          92          93          94          95          96          97          98          99         100
          101         102         103         104         105         106         107         108         109         110
          111         112         113         114         115         116         117         118         119         120
          121         122         123         124         125
 ........................................................................................................................
   1   -999.0      -999.0      -999.0      -999.0      -999.0      -999.0      -999.0      -999.0      -999.0      -999.0    
       -999.0      -999.0      -999.0      -999.0      -999.0      -999.0      -999.0      -999.0      -999.0      -999.0    
       -999.0      -999.0      -999.0      -999.0      -999.0      -999.0      -999.0      -999.0      -999.0      -999.0    
       -999.0      -999.0      -999.0      -999.0      -999.0      -999.0      -999.0      -999.0      -999.0      -999.0    
       -999.0      -999.0      -999.0      -999.0      -999.0      -999.0      -999.0      -999.0      -999.0      -999.0    
       -999.0      -999.0      -999.0      -999.0      -999.0      -999.0      -999.0      -999.0      -999.0      -999.0    
       -999.0      -999.0      -999.0      -999.0      -999.0      -999.0      -999.0      -999.0      -999.0      -999.0    
       -999.0      -999.0      -999.0      -999.0      -999.0      -999.0      -999.0      -999.0      -999.0      -999.0    
       -999.0      -999.0      -999.0      -999.0      -999.0      -999.0      -999.0      -999.0      -999.0      -999.0    
       -999.0      -999.0      -999.0      -999.0      -999.0      -999.0      -999.0      -999.0      -999.0      -999.0    
       -999.0      -999.0      -999.0      -999.0      -999.0      -999.0      -999.0      -999.0      -999.0      -999.0    
       -999.0      -999.0      -999.0      -999.0      -999.0      -999.0      -999.0      -999.0      -999.0      -999.0    
       -999.0      -999.0      -999.0      -999.0      -999.0    
   2   -999.0      -999.0      -999.0      -999.0      -999.0      -999.0      -999.0      -999.0      -999.0      -999.0    
       -999.0      -999.0      -999.0      -999.0      -999.0      -999.0      -999.0      -999.0      -999.0      -999.0    
       -999.0      -999.0      -999.0      -999.0      -999.0      -999.0      -999.0      -999.0      -999.0      -999.0    
       -999.0      -999.0      -999.0      -999.0      -999.0      -999.0      -999.0      -999.0      -999.0      -999.0    
       -999.0      -999.0      -999.0      -999.0      -999.0      -999.0      -999.0      -999.0      -999.0      -999.0    
       -999.0      -999.0      -999.0      -999.0      -999.0      -999.0      -999.0      -999.0      -999.0      -999.0    
       -999.0      -999.0      -999.0      -999.0      -999.0      -999.0      -999.0      -999.0      -999.0      -999.0    
       -999.0      -999.0      -999.0      -999.0      -999.0      -999.0      -999.0      -999.0      -999.0      -999.0    
       -999.0      -999.0      -999.0      -999.0      -999.0      -999.0      -999.0      -999.0      -999.0      -999.0    
       -999.0      -999.0      -999.0      -999.0      -999.0      -999.0      -999.0      -999.0      -999.0      -999.0    
       -999.0      -999.0      -999.0      -999.0      -999.0      -999.0      -999.0      -999.0      -999.0      -999.0    
       -999.0      -999.0      -999.0      -999.0      -999.0      -999.0      -999.0      -999.0      -999.0      -999.0    
       -999.0      -999.0      -999.0      -999.0      -999.0    
   3   -999.0       489.2       489.0       488.7       488.5       488.3       488.1       487.9       487.8       487.6    
        487.5       487.4       487.3       487.2       487.1       487.1       487.3       487.5       487.6       487.8    
        487.9       488.1       488.2       488.3       488.4       488.5       488.6       488.7       488.8       488.9    
        489.0       489.1       489.2       489.3       489.3       489.4       489.4       489.5       489.5       489.6    
        489.6       489.7       489.7       489.8       489.8       489.9       489.9       490.0       490.0       490.0    
        490.0       490.1       490.1       490.1       490.1       490.2       490.2       490.2       490.2       490.3    
        490.3       490.3       490.3       490.4       490.4       490.4       490.4       490.5       490.5       490.5    
        490.6       490.6       490.6       490.7       490.7       490.8       490.8       490.8       490.9       490.9    
        490.9       490.9       490.9       491.0       491.0       491.0       491.1       491.1       491.2       491.3    
        491.4       491.4       491.5       491.6       491.7       491.8       491.9       492.0       492.1       492.3    
        492.4       492.5       492.6       492.7       492.8       493.0       493.1       493.2       493.4       493.6    
        493.8       494.0       494.3       494.5       494.8       495.1       495.5       495.9       496.3       496.8    
        497.3       498.1       498.5       499.6      -999.0    
   4   -999.0       497.0       495.6       494.8       494.3       493.9       493.7       493.5       493.3       493.2    
        493.0       492.9       492.8       492.8       492.7       492.8       492.8       492.9       493.0       493.0    
        493.1       493.2       493.3       493.4       493.4       493.5       493.6       493.7       493.8       493.8    
        493.9       494.0       494.0       494.1       494.1       494.2       494.2       494.3       494.3       494.4    
        494.4       494.5       494.5       494.5       494.6       494.6       494.6       494.7       494.7       494.7    
        494.8       494.8       494.8       494.8       494.8       494.9       494.9       494.9       494.9       494.9    
        495.0       495.0       495.0       495.0       495.1       495.1       495.1       495.1       495.2       495.2    
        495.2       495.3       495.3       495.3       495.4       495.4       495.4       495.5       495.5       495.5    
        495.5       495.6       495.6       495.6       495.6       495.7       495.7       495.8       495.8       495.9    
        496.0       496.0       496.1       496.2       496.3       496.4       496.5       496.6       496.7       496.8    
        497.0       497.1       497.2       497.3       497.4       497.5       497.6       497.8       497.9       498.1    
        498.3       498.5       498.7       499.0       499.3       499.6       499.9       500.2       500.6       501.0    
        501.4       501.7       501.8       501.2      -999.0    
   5   -999.0       499.6       499.3       498.7       498.2       497.8       497.5       497.3       497.1       497.0    
        496.8       496.8       496.7       496.7       496.7       496.7       496.7       496.7       496.8       496.8    
        496.9       496.9       497.0       497.0       497.1       497.1       497.2       497.3       497.3       497.4    
        497.5       497.5       497.6       497.6       497.7       497.7       497.7       497.8       497.8       497.9    
        497.9       497.9       498.0       498.0       498.0       498.1       498.1       498.1       498.2       498.2    
        498.2       498.2       498.3       498.3       498.3       498.3       498.3       498.4       498.4       498.4    
        498.4       498.4       498.5       498.5       498.5       498.5       498.5       498.6       498.6       498.6    
        498.7       498.7       498.7       498.7       498.8       498.8       498.8       498.9       498.9       498.9    
        498.9       499.0       499.0       499.0       499.0       499.1       499.1       499.1       499.2       499.3    
        499.3       499.4       499.5       499.6       499.6       499.7       499.8       499.9       500.0       500.2    
        500.3       500.4       500.5       500.6       500.7       500.8       500.9       501.1       501.2       501.4    
        501.5       501.7       502.0       502.2       502.4       502.7       503.0       503.3       503.6       503.9    
        504.2       504.4       504.4       503.8      -999.0    
   6   -999.0       503.1       502.3       501.6       501.1       500.7       500.4       500.1       499.9       499.8    
        499.7       499.6       499.5       499.5       499.5       499.5       499.5       499.5       499.6       499.6    
        499.6       499.7       499.7       499.8       499.8       499.8       499.9       500.0       500.0       500.1    
        500.1       500.2       500.2       500.3       500.3       500.3       500.4       500.4       500.4       500.5    
        500.5       500.5       500.6       500.6       500.6       500.7       500.7       500.7       500.7       500.8    
        500.8       500.8       500.8       500.8       500.8       500.9       500.9       500.9       500.9       500.9    
        501.0       501.0       501.0       501.0       501.0       501.0       501.1       501.1       501.1       501.1    
        501.2       501.2       501.2       501.3       501.3       501.3       501.3       501.4       501.4       501.4    
        501.4       501.4       501.5       501.5       501.5       501.5       501.6       501.6       501.7       501.7    
        501.8       501.9       501.9       502.0       502.1       502.1       502.2       502.3       502.4       502.6    
        502.7       502.8       502.8       502.9       503.0       503.1       503.2       503.4       503.5       503.7    
        503.8       504.0       504.2       504.4       504.6       504.9       505.1       505.4       505.7       505.9    
        506.1       506.3       506.3       505.8      -999.0    
   7   -999.0       505.1       504.3       503.6       503.1       502.7       502.4       502.1       501.9       501.7    
        501.6       501.5       501.5       501.4       501.4       501.4       501.4       501.4       501.5       501.5    
        501.5       501.5       501.6       501.6       501.6       501.7       501.7       501.8       501.8       501.9    
        501.9       502.0       502.0       502.0       502.1       502.1       502.1       502.1       502.2       502.2    
        502.2       502.3       502.3       502.3       502.4       502.4       502.4       502.4       502.5       502.5    
        502.5       502.5       502.5       502.5       502.6       502.6       502.6       502.6       502.6       502.6    
        502.6       502.7       502.7       502.7       502.7       502.7       502.7       502.8       502.8       502.8    
        502.8       502.9       502.9       502.9       502.9       503.0       503.0       503.0       503.0       503.1    
        503.1       503.1       503.1       503.1       503.1       503.2       503.2       503.2       503.3       503.3    
        503.4       503.5       503.5       503.6       503.6       503.7       503.8       503.9       504.0       504.1    
        504.2       504.3       504.3       504.4       504.5       504.6       504.7       504.8       505.0       505.1    
        505.2       505.4       505.6       505.8       506.0       506.2       506.4       506.6       506.8       507.0    
        507.2       507.4       507.5       507.9      -999.0    
   8   -999.0       505.4       505.2       504.8       504.4       504.0       503.7       503.4       503.2       503.0    
        502.8       502.7       502.7       502.6       502.6       502.6       502.6       502.6       502.6       502.7    
        502.7       502.7       502.7       502.7       502.8       502.8       502.8       502.9       502.9       503.0    
        503.0       503.0       503.1       503.1       503.1       503.2       503.2       503.2       503.2       503.3    
        503.3       503.3       503.3       503.4       503.4       503.4       503.4       503.5       503.5       503.5    
        503.5       503.5       503.5       503.5       503.6       503.6       503.6       503.6       503.6       503.6    
        503.6       503.7       503.7       503.7       503.7       503.7       503.7       503.8       503.8       503.8    
        503.8       503.8       503.9       503.9       503.9       503.9       504.0       504.0       504.0       504.0    
        504.0       504.0       504.0       504.1       504.1       504.1       504.1       504.2       504.2       504.3    
        504.3       504.4       504.4       504.5       504.5       504.6       504.7       504.7       504.8       504.9    
        505.0       505.1       505.1       505.2       505.3       505.4       505.5       505.6       505.7       505.8    
        506.0       506.1       506.3       506.4       506.6       506.8       507.0       507.1       507.3       507.5    
        507.6       507.7       507.7       507.5      -999.0    
   9   -999.0       505.7       505.8       505.6       505.2       504.8       504.4       504.1       503.9       503.7    
        503.6       503.4       503.4       503.3       503.3       503.3       503.3       503.3       503.3       503.3    
        503.3       503.3       503.3       503.3       503.4       503.4       503.4       503.5       503.5       503.5    
        503.6       503.6       503.6       503.6       503.7       503.7       503.7       503.7       503.8       503.8    
        503.8       503.8       503.8       503.9       503.9       503.9       503.9       503.9       504.0       504.0    
        504.0       504.0       504.0       504.0       504.0       504.0       504.1       504.1       504.1       504.1    
        504.1       504.1       504.1       504.1       504.2       504.2       504.2       504.2       504.2       504.2    
        504.3       504.3       504.3       504.3       504.3       504.4       504.4       504.4       504.4       504.4    
        504.4       504.4       504.5       504.5       504.5       504.5       504.5       504.6       504.6       504.6    
        504.7       504.7       504.8       504.8       504.9       504.9       505.0       505.1       505.1       505.2    
        505.3       505.4       505.4       505.5       505.6       505.6       505.7       505.8       505.9       506.0    
        506.1       506.3       506.4       506.5       506.7       506.8       507.0       507.2       507.3       507.4    
        507.5       507.5       507.4       506.9      -999.0    
  10   -999.0       506.0       506.3       506.1       505.7       505.3       504.9       504.5       504.2       504.0    
        503.9       503.7       503.6       503.6       503.5       503.5       503.5       503.5       503.5       503.5    
        503.5       503.5       503.5       503.5       503.5       503.6       503.6       503.6       503.6       503.7    
        503.7       503.7       503.8       503.8       503.8       503.8       503.8       503.8       503.9       503.9    
        503.9       503.9       503.9       504.0       504.0       504.0       504.0       504.0       504.0       504.1    
        504.1       504.1       504.1       504.1       504.1       504.1       504.1       504.1       504.1       504.2    
        504.2       504.2       504.2       504.2       504.2       504.2       504.2       504.2       504.3       504.3    
        504.3       504.3       504.3       504.3       504.4       504.4       504.4       504.4       504.4       504.4    
        504.4       504.4       504.5       504.5       504.5       504.5       504.5       504.5       504.6       504.6    
        504.6       504.7       504.7       504.8       504.8       504.9       504.9       505.0       505.0       505.1    
        505.2       505.2       505.3       505.3       505.4       505.5       505.6       505.6       505.7       505.8    
        505.9       506.0       506.1       506.3       506.4       506.5       506.6       506.8       506.9       507.0    
        507.0       507.0       506.9       506.4      -999.0    
  11   -999.0       506.3       506.5       506.3       505.9       505.5       505.0       504.6       504.3       504.0    
        503.8       503.7       503.6       503.5       503.5       503.4       503.4       503.4       503.4       503.4    
        503.4       503.4       503.4       503.4       503.4       503.4       503.5       503.5       503.5       503.5    
        503.5       503.6       503.6       503.6       503.6       503.6       503.6       503.7       503.7       503.7    
        503.7       503.7       503.7       503.7       503.8       503.8       503.8       503.8       503.8       503.8    
        503.8       503.8       503.8       503.9       503.9       503.9       503.9       503.9       503.9       503.9    
        503.9       503.9       503.9       503.9       503.9       503.9       504.0       504.0       504.0       504.0    
        504.0       504.0       504.0       504.0       504.1       504.1       504.1       504.1       504.1       504.1    
        504.1       504.1       504.1       504.1       504.2       504.2       504.2       504.2       504.2       504.3    
        504.3       504.3       504.4       504.4       504.4       504.5       504.5       504.6       504.6       504.7    
        504.7       504.8       504.8       504.9       504.9       505.0       505.1       505.1       505.2       505.3    
        505.4       505.5       505.6       505.7       505.8       505.9       506.0       506.1       506.2       506.2    
        506.3       506.2       506.0       505.4      -999.0    
  12   -999.0       506.5       506.7       506.5       506.0       505.5       505.0       504.5       504.1       503.8    
        503.6       503.4       503.3       503.2       503.1       503.1       503.1       503.1       503.0       503.0    
        503.0       503.0       503.0       503.0       503.0       503.1       503.1       503.1       503.1       503.1    
        503.1       503.1       503.2       503.2       503.2       503.2       503.2       503.2       503.2       503.2    
        503.3       503.3       503.3       503.3       503.3       503.3       503.3       503.3       503.3       503.3    
        503.3       503.4       503.4       503.4       503.4       503.4       503.4       503.4       503.4       503.4    
        503.4       503.4       503.4       503.4       503.4       503.4       503.4       503.5       503.5       503.5    
        503.5       503.5       503.5       503.5       503.5       503.5       503.5       503.5       503.6       503.6    
        503.6       503.6       503.6       503.6       503.6       503.6       503.6       503.6       503.7       503.7    
        503.7       503.7       503.7       503.8       503.8       503.8       503.9       503.9       504.0       504.0    
        504.1       504.1       504.1       504.2       504.2       504.3       504.3       504.4       504.5       504.5    
        504.6       504.7       504.7       504.8       504.9       505.0       505.1       505.2       505.2       505.3    
        505.3       505.2       505.0       504.5      -999.0    
  13   -999.0       506.7       506.9       506.5       506.0       505.4       504.7       504.2       503.7       503.4    
        503.1       502.9       502.8       502.7       502.6       502.6       502.6       502.5       502.5       502.5    
        502.5       502.5       502.5       502.5       502.5       502.5       502.5       502.5       502.5       502.5    
        502.6       502.6       502.6       502.6       502.6       502.6       502.6       502.6       502.6       502.6    
        502.6       502.6       502.6       502.7       502.7       502.7       502.7       502.7       502.7       502.7    
        502.7       502.7       502.7       502.7       502.7       502.7       502.7       502.7       502.7       502.7    
        502.7       502.7       502.7       502.7       502.7       502.7       502.7       502.8       502.8       502.8    
        502.8       502.8       502.8       502.8       502.8       502.8       502.8       502.8       502.8       502.8    
        502.8       502.8       502.8       502.8       502.8       502.9       502.9       502.9       502.9       502.9    
        502.9       502.9       502.9       503.0       503.0       503.0       503.0       503.1       503.1       503.1    
        503.2       503.2       503.3       503.3       503.3       503.4       503.4       503.4       503.5       503.5    
        503.6       503.7       503.7       503.8       503.9       503.9       504.0       504.0       504.1       504.1    
        504.1       504.0       503.8       503.3      -999.0    
  14   -999.0       506.9       507.0       506.5       505.8       505.1       504.4       503.7       503.2       502.8    
        502.5       502.3       502.2       502.1       502.0       502.0       501.9       501.9       501.9       501.9    
        501.9       501.8       501.8       501.8       501.8       501.8       501.8       501.8       501.8       501.8    
        501.8       501.8       501.9       501.9       501.9       501.9       501.9       501.9       501.9       501.9    
        501.9       501.9       501.9       501.9       501.9       501.9       501.9       501.9       501.9       501.9    
        501.9       501.9       501.9       501.9       501.9       501.9       501.9       501.9       501.9       501.9    
        501.9       501.9       501.9       501.9       501.9       501.9       501.9       501.9       501.9       501.9    
        501.9       501.9       501.9       501.9       501.9       501.9       501.9       501.9       501.9       501.9    
        501.9       501.9       501.9       501.9       501.9       501.9       501.9       502.0       502.0       502.0    
        502.0       502.0       502.0       502.0       502.0       502.0       502.1       502.1       502.1       502.1    
        502.1       502.2       502.2       502.2       502.2       502.3       502.3       502.3       502.4       502.4    
        502.5       502.5       502.5       502.6       502.6       502.7       502.7       502.8       502.8       502.8    
        502.8       502.7       502.5       501.8      -999.0    
  15   -999.0       507.1       507.0       506.4       505.6       504.8       504.0       503.2       502.4       502.0    
        501.7       501.6       501.4       501.3       501.3       501.2       501.2       501.2       501.1       501.1    
        501.1       501.1       501.1       501.1       501.1       501.1       501.0       501.0       501.0       501.0    
        501.0       501.0       501.0       501.0       501.0       501.0       501.0       501.0       501.0       501.0    
        501.0       501.0       501.0       501.0       501.0       501.0       501.0       501.0       501.0       501.0    
        501.0       501.0       501.0       501.0       501.0       501.0       501.0       501.0       501.0       501.0    
        501.0       501.0       501.0       501.0       501.0       501.0       500.9       500.9       500.9       500.9    
        500.9       500.9       500.9       500.9       500.9       500.9       500.9       500.9       500.9       500.9    
        500.9       500.9       500.9       500.9       500.9       500.9       500.9       500.9       500.9       500.9    
        500.9       500.9       500.9       500.9       500.9       500.9       500.9       500.9       500.9       501.0    
        501.0       501.0       501.0       501.0       501.0       501.1       501.1       501.1       501.1       501.1    
        501.2       501.2       501.2       501.3       501.3       501.3       501.4       501.4       501.4       501.4    
        501.4       501.3       501.1       500.3      -999.0    
  16   -999.0       507.3       507.0       506.2       505.4       504.5       503.5       502.5       501.6       501.1    
        500.9       500.7       500.6       500.5       500.5       500.4       500.4       500.3       500.3       500.3    
        500.2       500.2       500.2       500.2       500.2       500.2       500.1       500.1       500.1       500.1    
        500.1       500.1       500.1       500.1       500.1       500.1       500.0       500.0       500.0       500.0    
        500.0       500.0       500.0       500.0       500.0       500.0       500.0       500.0       500.0       499.9    
        499.9       499.9       499.9       499.9       499.9       499.9       499.9       499.9       499.9       499.9    
        499.9       499.9       499.9       499.9       499.9       499.9       499.9       499.9       499.8       499.8    
        499.8       499.8       499.8       499.8       499.8       499.8       499.8       499.8       499.8       499.8    
        499.8       499.8       499.8       499.8       499.8       499.8       499.7       499.7       499.7       499.7    
        499.7       499.7       499.7       499.7       499.7       499.7       499.7       499.7       499.7       499.7    
        499.7       499.7       499.7       499.7       499.7       499.7       499.7       499.7       499.7       499.8    
        499.8       499.8       499.8       499.8       499.9       499.9       499.9       499.9       499.9       499.9    
        499.9       499.8       499.7       498.9      -999.0    
  17   -999.0       507.4       506.9       506.1       505.1       504.1       503.1       501.8       500.4       500.1    
        499.9       499.8       499.7       499.6       499.5       499.4       499.4       499.3       499.3       499.2    
        499.2       499.2       499.2       499.1       499.1       499.1       499.1       499.0       499.0       499.0    
        498.9       498.9       498.9       498.9       498.9       498.9       498.9       498.8       498.8       498.8    
        498.8       498.8       498.8       498.8       498.7       498.7       498.7       498.7       498.7       498.7    
        498.7       498.7       498.7       498.7       498.6       498.6       498.6       498.6       498.6       498.6    
        498.6       498.6       498.6       498.6       498.6       498.6       498.5       498.5       498.5       498.5    
        498.5       498.5       498.5       498.5       498.5       498.4       498.4       498.4       498.4       498.4    
        498.4       498.4       498.4       498.4       498.4       498.4       498.4       498.3       498.3       498.3    
        498.3       498.3       498.3       498.2       498.2       498.2       498.2       498.2       498.2       498.2    
        498.2       498.2       498.2       498.2       498.2       498.2       498.2       498.2       498.2       498.2    
        498.2       498.2       498.2       498.2       498.2       498.3       498.3       498.3       498.3       498.3    
        498.3       498.2       498.2       497.8      -999.0    
  18   -999.0       507.6       506.8       505.8       504.8       503.8       502.7       501.2       499.3       499.2    
        499.1       499.0       498.9       498.8       498.7       498.7       498.6       498.5       498.5       498.4    
        498.4       498.4       498.3       498.3       498.2       498.2       498.1       498.1       498.1       498.0    
        498.0       498.0       497.9       497.9       497.9       497.9       497.9       497.9       497.8       497.8    
        497.8       497.8       497.8       497.8       497.7       497.7       497.7       497.7       497.7       497.7    
        497.7       497.6       497.6       497.6       497.6       497.6       497.6       497.6       497.6       497.6    
        497.6       497.6       497.5       497.5       497.5       497.5       497.5       497.5       497.5       497.5    
        497.4       497.4       497.4       497.4       497.4       497.4       497.4       497.4       497.3       497.3    
        497.3       497.3       497.3       497.3       497.3       497.3       497.3       497.3       497.2       497.2    
        497.2       497.2       497.2       497.1       497.1       497.1       497.1       497.1       497.1       497.1    
        497.1       497.1       497.1       497.1       497.1       497.1       497.1       497.1       497.1       497.1    
        497.1       497.1       497.1       497.1       497.2       497.2       497.2       497.2       497.2       497.2    
        497.2       497.2       497.2       497.2      -999.0    
  19   -999.0       507.7       506.7       505.6       504.5       503.4       502.3       500.8       499.3       499.2    
        499.1       499.0       498.9       498.8       498.7       498.6       498.6       498.5       498.5       498.4    
        498.4       498.3       498.3       498.3       498.2       498.2       498.1       498.1       498.1       498.0    
        498.0       498.0       497.9       497.9       497.9       497.9       497.9       497.9       497.9       497.8    
        497.8       497.8       497.8       497.8       497.7       497.7       497.7       497.7       497.7       497.7    
        497.7       497.6       497.6       497.6       497.6       497.6       497.6       497.6       497.6       497.6    
        497.6       497.5       497.5       497.5       497.5       497.5       497.5       497.5       497.5       497.4    
        497.4       497.4       497.4       497.4       497.4       497.4       497.4       497.3       497.3       497.3    
        497.3       497.3       497.3       497.3       497.3       497.3       497.3       497.2       497.2       497.2    
        497.2       497.2       497.1       497.1       497.1       497.1       497.1       497.1       497.1       497.0    
        497.0       497.0       497.0       497.0       497.0       497.0       497.1       497.1       497.1       497.1    
        497.1       497.1       497.1       497.1       497.1       497.2       497.2       497.2       497.2       497.2    
        497.2       497.2       497.2       497.2      -999.0    
  20   -999.0       507.8       506.5       505.3       504.1       503.1       502.0       500.6       499.3       499.2    
        499.1       499.0       498.9       498.8       498.7       498.6       498.6       498.5       498.4       498.4    
        498.4       498.3       498.3       498.3       498.2       498.2       498.1       498.1       498.1       498.0    
        498.0       498.0       498.0       497.9       497.9       497.9       497.9       497.9       497.9       497.8    
        497.8       497.8       497.8       497.8       497.7       497.7       497.7       497.7       497.7       497.7    
        497.7       497.6       497.6       497.6       497.6       497.6       497.6       497.6       497.6       497.6    
        497.5       497.5       497.5       497.5       497.5       497.5       497.5       497.5       497.4       497.4    
        497.4       497.4       497.4       497.4       497.4       497.3       497.3       497.3       497.3       497.3    
        497.3       497.3       497.3       497.3       497.3       497.2       497.2       497.2       497.2       497.2    
        497.2       497.1       497.1       497.1       497.1       497.1       497.1       497.0       497.0       497.0    
        497.0       497.0       497.0       497.0       497.0       497.0       497.0       497.0       497.1       497.1    
        497.1       497.1       497.1       497.1       497.1       497.1       497.2       497.2       497.2       497.2    
        497.2       497.2       497.2       497.2      -999.0    
  21   -999.0       507.9       506.3       505.0       503.8       502.8       501.8       500.5       499.4       499.3    
        499.1       499.0       498.9       498.8       498.7       498.6       498.5       498.5       498.4       498.4    
        498.4       498.3       498.3       498.2       498.2       498.2       498.1       498.1       498.1       498.0    
        498.0       498.0       498.0       498.0       497.9       497.9       497.9       497.9       497.9       497.9    
        497.8       497.8       497.8       497.8       497.8       497.7       497.7       497.7       497.7       497.7    
        497.6       497.6       497.6       497.6       497.6       497.6       497.6       497.6       497.6       497.5    
        497.5       497.5       497.5       497.5       497.5       497.5       497.5       497.4       497.4       497.4    
        497.4       497.4       497.4       497.3       497.3       497.3       497.3       497.3       497.3       497.3    
        497.3       497.3       497.2       497.2       497.2       497.2       497.2       497.2       497.2       497.1    
        497.1       497.1       497.1       497.1       497.1       497.0       497.0       497.0       497.0       497.0    
        497.0       497.0       497.0       497.0       497.0       497.0       497.0       497.0       497.0       497.1    
        497.1       497.1       497.1       497.1       497.1       497.1       497.1       497.1       497.2       497.2    
        497.2       497.2       497.2       497.2      -999.0    
  22   -999.0       507.9       506.1       504.6       503.4       502.4       501.5       500.4       499.4       499.3    
        499.1       499.0       498.9       498.8       498.7       498.6       498.5       498.5       498.4       498.4    
        498.3       498.3       498.3       498.2       498.2       498.2       498.1       498.1       498.1       498.0    
        498.0       498.0       498.0       498.0       498.0       498.0       497.9       497.9       497.9       497.9    
        497.9       497.8       497.8       497.8       497.8       497.7       497.7       497.7       497.7       497.7    
        497.6       497.6       497.6       497.6       497.6       497.6       497.6       497.6       497.5       497.5    
        497.5       497.5       497.5       497.5       497.5       497.4       497.4       497.4       497.4       497.4    
        497.4       497.3       497.3       497.3       497.3       497.3       497.3       497.3       497.2       497.2    
        497.2       497.2       497.2       497.2       497.2       497.2       497.2       497.1       497.1       497.1    
        497.1       497.1       497.1       497.0       497.0       497.0       497.0       497.0       497.0       497.0    
        497.0       497.0       497.0       497.0       497.0       497.0       497.0       497.0       497.0       497.0    
        497.1       497.1       497.1       497.1       497.1       497.1       497.1       497.1       497.1       497.2    
        497.2       497.2       497.2       497.2      -999.0    
  23   -999.0       507.8       505.7       504.2       503.0       502.1       501.2       500.3       499.4       499.3    
        499.1       499.0       498.9       498.7       498.7       498.6       498.5       498.5       498.4       498.4    
        498.3       498.3       498.3       498.2       498.2       498.2       498.1       498.1       498.1       498.1    
        498.0       498.0       498.0       498.0       498.0       498.0       498.0       498.0       497.9       497.9    
        497.9       497.9       497.8       497.8       497.8       497.8       497.7       497.7       497.7       497.7    
        497.6       497.6       497.6       497.6       497.6       497.6       497.6       497.5       497.5       497.5    
        497.5       497.5       497.5       497.4       497.4       497.4       497.4       497.4       497.4       497.3    
        497.3       497.3       497.3       497.3       497.3       497.2       497.2       497.2       497.2       497.2    
        497.2       497.2       497.2       497.2       497.1       497.1       497.1       497.1       497.1       497.1    
        497.1       497.0       497.0       497.0       497.0       497.0       497.0       497.0       497.0       497.0    
        497.0       497.0       497.0       497.0       497.0       497.0       497.0       497.0       497.0       497.0    
        497.1       497.1       497.1       497.1       497.1       497.1       497.1       497.1       497.1       497.1    
        497.2       497.2       497.2       497.2      -999.0    
  24   -999.0       505.8       505.4       503.8       502.6       501.7       500.9       500.2       499.5       499.3    
        499.1       499.0       498.8       498.7       498.6       498.6       498.5       498.4       498.4       498.3    
        498.3       498.3       498.2       498.2       498.2       498.2       498.1       498.1       498.1       498.1    
        498.1       498.1       498.0       498.0       498.0       498.0       498.0       498.0       498.0       498.0    
        497.9       497.9       497.9       497.8       497.8       497.8       497.7       497.7       497.7       497.7    
        497.6       497.6       497.6       497.6       497.6       497.6       497.5       497.5       497.5       497.5    
        497.5       497.4       497.4       497.4       497.4       497.4       497.4       497.4       497.3       497.3    
        497.3       497.3       497.3       497.2       497.2       497.2       497.2       497.2       497.2       497.2    
        497.1       497.1       497.1       497.1       497.1       497.1       497.1       497.1       497.0       497.0    
        497.0       497.0       497.0       497.0       497.0       497.0       496.9       496.9       496.9       496.9    
        496.9       497.0       497.0       497.0       497.0       497.0       497.0       497.0       497.0       497.0    
        497.0       497.1       497.1       497.1       497.1       497.1       497.1       497.1       497.1       497.1    
        497.1       497.2       497.2       497.2      -999.0    
  25   -999.0       507.4       505.2       503.5       502.3       501.4       500.7       500.1       499.6       499.3    
        499.1       499.0       498.8       498.7       498.6       498.5       498.5       498.4       498.4       498.3    
        498.3       498.3       498.2       498.2       498.2       498.2       498.1       498.1       498.1       498.1    
        498.1       498.1       498.1       498.1       498.1       498.1       498.1       498.0       498.0       498.0    
        498.0       497.9       497.9       497.9       497.8       497.8       497.7       497.7       497.7       497.7    
        497.6       497.6       497.6       497.6       497.6       497.5       497.5       497.5       497.5       497.5    
        497.4       497.4       497.4       497.4       497.4       497.4       497.3       497.3       497.3       497.3    
        497.3       497.2       497.2       497.2       497.2       497.2       497.1       497.1       497.1       497.1    
        497.1       497.1       497.1       497.1       497.1       497.1       497.0       497.0       497.0       497.0    
        497.0       497.0       496.9       496.9       496.9       496.9       496.9       496.9       496.9       496.9    
        496.9       496.9       496.9       496.9       497.0       497.0       497.0       497.0       497.0       497.0    
        497.0       497.1       497.1       497.1       497.1       497.1       497.1       497.1       497.1       497.1    
        497.1       497.2       497.2       497.2      -999.0    
  26   -999.0       507.3       505.1       503.5       502.3       501.4       500.7       500.1       499.6       499.3    
        499.1       499.0       498.8       498.7       498.6       498.5       498.5       498.4       498.4       498.3    
        498.3       498.2       498.2       498.2       498.2       498.1       498.1       498.1       498.1       498.1    
        498.1       498.1       498.1       498.1       498.1       498.1       498.1       498.1       498.1       498.1    
        498.0       498.0       497.9       497.9       497.8       497.8       497.8       497.7       497.7       497.6    
        497.6       497.6       497.6       497.6       497.5       497.5       497.5       497.5       497.4       497.4    
        497.4       497.4       497.4       497.3       497.3       497.3       497.3       497.3       497.3       497.2    
        497.2       497.2       497.2       497.2       497.1       497.1       497.1       497.1       497.1       497.1    
        497.1       497.1       497.0       497.0       497.0       497.0       497.0       497.0       497.0       497.0    
        496.9       496.9       496.9       496.9       496.9       496.9       496.9       496.9       496.9       496.9    
        496.9       496.9       496.9       496.9       496.9       497.0       497.0       497.0       497.0       497.0    
        497.0       497.1       497.1       497.1       497.1       497.1       497.1       497.1       497.1       497.1    
        497.1       497.2       497.2       497.2      -999.0    
  27   -999.0       507.1       505.1       503.5       502.3       501.4       500.7       500.1       499.6       499.3    
        499.1       498.9       498.8       498.7       498.6       498.5       498.4       498.4       498.3       498.3    
        498.3       498.2       498.2       498.2       498.2       498.1       498.1       498.1       498.1       498.1    
        498.1       498.1       498.1       498.1       498.2       498.2       498.2       498.2       498.2       498.1    
        498.1       498.0       498.0       497.9       497.9       497.8       497.8       497.7       497.7       497.6    
        497.6       497.6       497.6       497.5       497.5       497.5       497.5       497.4       497.4       497.4    
        497.4       497.3       497.3       497.3       497.3       497.3       497.3       497.2       497.2       497.2    
        497.2       497.2       497.1       497.1       497.1       497.1       497.1       497.1       497.0       497.0    
        497.0       497.0       497.0       497.0       497.0       497.0       497.0       497.0       496.9       496.9    
        496.9       496.9       496.9       496.9       496.9       496.9       496.9       496.9       496.9       496.9    
        496.9       496.9       496.9       496.9       496.9       496.9       497.0       497.0       497.0       497.0    
        497.0       497.0       497.1       497.1       497.1       497.1       497.1       497.1       497.1       497.1    
        497.1       497.2       497.2       497.2      -999.0    
  28   -999.0       507.0       505.0       503.5       502.3       501.4       500.7       500.1       499.6       499.3    
        499.1       498.9       498.8       498.7       498.6       498.5       498.4       498.4       498.3       498.3    
        498.2       498.2       498.2       498.2       498.1       498.1       498.1       498.1       498.1       498.1    
        498.1       498.1       498.1       498.2       498.2       498.2       498.3       498.3       498.3       498.3    
        498.2       498.1       498.0       497.9       497.9       497.8       497.8       497.7       497.7       497.6    
        497.6       497.6       497.5       497.5       497.5       497.5       497.4       497.4       497.4       497.3    
        497.3       497.3       497.3       497.3       497.3       497.2       497.2       497.2       497.2       497.2    
        497.1       497.1       497.1       497.1       497.1       497.0       497.0       497.0       497.0       497.0    
        497.0       497.0       497.0       497.0       497.0       497.0       496.9       496.9       496.9       496.9    
        496.9       496.9       496.9       496.9       496.9       496.9       496.9       496.9       496.9       496.9    
        496.9       496.9       496.9       496.9       496.9       496.9       496.9       497.0       497.0       497.0    
        497.0       497.0       497.1       497.1       497.1       497.1       497.1       497.1       497.1       497.1    
        497.1       497.1       497.2       497.2      -999.0    
  29   -999.0       506.9       505.0       503.4       502.2       501.3       500.7       500.1       499.6       499.3    
        499.1       498.9       498.8       498.7       498.6       498.5       498.4       498.4       498.3       498.3    
        498.2       498.2       498.2       498.2       498.1       498.1       498.1       498.1       498.1       498.1    
        498.1       498.1       498.2       498.2       498.2       498.3       498.3       498.4       498.5       498.4    
        498.3       498.2       498.1       498.0       497.9       497.8       497.7       497.7       497.6       497.6    
        497.6       497.5       497.5       497.5       497.5       497.4       497.4       497.4       497.3       497.3    
        497.3       497.3       497.3       497.2       497.2       497.2       497.2       497.2       497.1       497.1    
        497.1       497.1       497.1       497.0       497.0       497.0       497.0       497.0       497.0       497.0    
        497.0       497.0       496.9       496.9       496.9       496.9       496.9       496.9       496.9       496.9    
        496.9       496.9       496.8       496.8       496.8       496.8       496.8       496.8       496.9       496.9    
        496.9       496.9       496.9       496.9       496.9       496.9       496.9       497.0       497.0       497.0    
        497.0       497.0       497.1       497.1       497.1       497.1       497.1       497.1       497.1       497.1    
        497.1       497.1       497.2       497.2      -999.0    
  30   -999.0       506.8       504.9       503.4       502.2       501.3       500.6       500.1       499.6       499.3    
        499.1       498.9       498.8       498.7       498.6       498.5       498.4       498.3       498.3       498.3    
        498.2       498.2       498.2       498.1       498.1       498.1       498.1       498.1       498.1       498.1    
        498.1       498.1       498.2       498.2       498.2       498.3       498.4       498.5       498.7       498.7    
        498.4       498.2       498.1       498.0       497.9       497.8       497.7       497.7       497.6       497.6    
        497.5       497.5       497.5       497.4       497.4       497.4       497.4       497.3       497.3       497.3    
        497.3       497.2       497.2       497.2       497.2       497.2       497.1       497.1       497.1       497.1    
        497.1       497.0       497.0       497.0       497.0       497.0       497.0       497.0       496.9       496.9    
        496.9       496.9       496.9       496.9       496.9       496.9       496.9       496.9       496.9       496.9    
        496.8       496.8       496.8       496.8       496.8       496.8       496.8       496.8       496.8       496.9    
        496.9       496.9       496.9       496.9       496.9       496.9       496.9       497.0       497.0       497.0    
        497.0       497.0       497.1       497.1       497.1       497.1       497.1       497.1       497.1       497.1    
        497.1       497.1       497.2       497.2      -999.0    
  31   -999.0       506.7       504.8       503.3       502.2       501.3       500.6       500.1       499.6       499.3    
        499.1       498.9       498.8       498.6       498.5       498.5       498.4       498.3       498.3       498.2    
        498.2       498.2       498.2       498.1       498.1       498.1       498.1       498.1       498.1       498.1    
        498.1       498.1       498.1       498.2       498.2       498.3       498.4       498.5       498.7       498.7    
        498.4       498.2       498.0       497.9       497.9       497.8       497.7       497.6       497.6       497.5    
        497.5       497.5       497.4       497.4       497.4       497.4       497.3       497.3       497.3       497.2    
        497.2       497.2       497.2       497.2       497.1       497.1       497.1       497.1       497.1       497.0    
        497.0       497.0       497.0       497.0       497.0       496.9       496.9       496.9       496.9       496.9    
        496.9       496.9       496.9       496.9       496.9       496.9       496.9       496.8       496.8       496.8    
        496.8       496.8       496.8       496.8       496.8       496.8       496.8       496.8       496.8       496.8    
        496.9       496.9       496.9       496.9       496.9       496.9       496.9       496.9       497.0       497.0    
        497.0       497.0       497.1       497.1       497.1       497.1       497.1       497.1       497.1       497.1    
        497.1       497.1       497.2       497.2      -999.0    
  32   -999.0       506.6       504.8       503.3       502.1       501.3       500.6       500.1       499.6       499.3    
        499.1       498.9       498.8       498.6       498.5       498.5       498.4       498.3       498.3       498.2    
        498.2       498.2       498.1       498.1       498.1       498.1       498.1       498.1       498.0       498.1    
        498.1       498.1       498.1       498.1       498.2       498.2       498.3       498.3       498.4       498.4    
        498.2       498.1       498.0       497.9       497.8       497.7       497.7       497.6       497.6       497.5    
        497.5       497.4       497.4       497.4       497.3       497.3       497.3       497.2       497.2       497.2    
        497.2       497.1       497.1       497.1       497.1       497.1       497.1       497.0       497.0       497.0    
        497.0       497.0       496.9       496.9       496.9       496.9       496.9       496.9       496.9       496.9    
        496.9       496.9       496.9       496.9       496.8       496.8       496.8       496.8       496.8       496.8    
        496.8       496.8       496.8       496.8       496.8       496.8       496.8       496.8       496.8       496.8    
        496.8       496.9       496.9       496.9       496.9       496.9       496.9       496.9       497.0       497.0    
        497.0       497.0       497.0       497.1       497.1       497.1       497.1       497.1       497.1       497.1    
        497.1       497.1       497.2       497.2      -999.0    
  33   -999.0       506.5       504.7       503.2       502.1       501.2       500.6       500.0       499.6       499.3    
        499.1       498.9       498.7       498.6       498.5       498.4       498.4       498.3       498.3       498.2    
        498.2       498.2       498.1       498.1       498.1       498.1       498.0       498.0       498.0       498.0    
        498.0       498.1       498.1       498.1       498.1       498.1       498.2       498.2       498.2       498.2    
        498.1       498.0       497.9       497.8       497.8       497.7       497.6       497.6       497.5       497.5    
        497.4       497.4       497.3       497.3       497.3       497.3       497.2       497.2       497.2       497.1    
        497.1       497.1       497.1       497.1       497.0       497.0       497.0       497.0       497.0       496.9    
        496.9       496.9       496.9       496.9       496.9       496.9       496.9       496.8       496.8       496.8    
        496.8       496.8       496.8       496.8       496.8       496.8       496.8       496.8       496.8       496.8    
        496.8       496.8       496.8       496.8       496.8       496.8       496.8       496.8       496.8       496.8    
        496.8       496.8       496.9       496.9       496.9       496.9       496.9       496.9       497.0       497.0    
        497.0       497.0       497.0       497.1       497.1       497.1       497.1       497.1       497.1       497.1    
        497.1       497.1       497.2       497.2      -999.0    
  34   -999.0       506.3       504.6       503.1       502.0       501.2       500.5       500.0       499.6       499.3    
        499.1       498.9       498.7       498.6       498.5       498.4       498.4       498.3       498.2       498.2    
        498.2       498.1       498.1       498.1       498.1       498.0       498.0       498.0       498.0       498.0    
        498.0       498.0       498.0       498.0       498.1       498.1       498.1       498.1       498.0       498.0    
        498.0       497.9       497.8       497.7       497.7       497.6       497.6       497.5       497.4       497.4    
        497.4       497.3       497.3       497.3       497.2       497.2       497.2       497.1       497.1       497.1    
        497.0       497.0       497.0       497.0       497.0       497.0       496.9       496.9       496.9       496.9    
        496.9       496.9       496.9       496.8       496.8       496.8       496.8       496.8       496.8       496.8    
        496.8       496.8       496.8       496.8       496.8       496.8       496.8       496.8       496.8       496.8    
        496.8       496.7       496.7       496.8       496.8       496.8       496.8       496.8       496.8       496.8    
        496.8       496.8       496.8       496.9       496.9       496.9       496.9       496.9       496.9       497.0    
        497.0       497.0       497.0       497.1       497.1       497.1       497.1       497.1       497.1       497.1    
        497.1       497.1       497.2       497.2      -999.0    
  35   -999.0       506.2       504.4       503.0       501.9       501.1       500.5       500.0       499.6       499.3    
        499.1       498.9       498.7       498.6       498.5       498.4       498.3       498.3       498.2       498.2    
        498.2       498.1       498.1       498.1       498.0       498.0       498.0       498.0       498.0       498.0    
        498.0       498.0       498.0       498.0       498.0       498.0       498.0       498.0       497.9       497.9    
        497.9       497.8       497.7       497.7       497.6       497.6       497.5       497.4       497.4       497.3    
        497.3       497.2       497.2       497.2       497.1       497.1       497.1       497.1       497.0       497.0    
        497.0       497.0       496.9       496.9       496.9       496.9       496.9       496.9       496.9       496.8    
        496.8       496.8       496.8       496.8       496.8       496.8       496.8       496.8       496.8       496.8    
        496.8       496.7       496.7       496.7       496.7       496.7       496.7       496.7       496.7       496.7    
        496.7       496.7       496.7       496.7       496.7       496.7       496.7       496.8       496.8       496.8    
        496.8       496.8       496.8       496.8       496.9       496.9       496.9       496.9       496.9       497.0    
        497.0       497.0       497.0       497.1       497.1       497.1       497.1       497.1       497.1       497.1    
        497.1       497.1       497.1       497.2      -999.0    
  36   -999.0       506.1       504.3       502.9       501.9       501.1       500.4       500.0       499.6       499.3    
        499.0       498.9       498.7       498.6       498.5       498.4       498.3       498.3       498.2       498.2    
        498.1       498.1       498.1       498.1       498.0       498.0       498.0       498.0       498.0       498.0    
        498.0       498.0       498.0       498.0       497.9       497.9       497.9       497.9       497.9       497.8    
        497.8       497.7       497.7       497.6       497.6       497.5       497.4       497.4       497.3       497.3    
        497.2       497.2       497.1       497.1       497.1       497.1       497.0       497.0       497.0       496.9    
        496.9       496.9       496.9       496.9       496.9       496.8       496.8       496.8       496.8       496.8    
        496.8       496.8       496.8       496.7       496.7       496.7       496.7       496.7       496.7       496.7    
        496.7       496.7       496.7       496.7       496.7       496.7       496.7       496.7       496.7       496.7    
        496.7       496.7       496.7       496.7       496.7       496.7       496.7       496.7       496.8       496.8    
        496.8       496.8       496.8       496.8       496.9       496.9       496.9       496.9       496.9       497.0    
        497.0       497.0       497.0       497.1       497.1       497.1       497.1       497.1       497.1       497.1    
        497.1       497.1       497.1       497.2      -999.0    
  37   -999.0       506.0       504.2       502.9       501.8       501.0       500.4       499.9       499.6       499.3    
        499.0       498.8       498.7       498.6       498.5       498.4       498.3       498.3       498.2       498.2    
        498.1       498.1       498.1       498.0       498.0       498.0       498.0       498.0       497.9       497.9    
        497.9       497.9       497.9       497.9       497.9       497.9       497.9       497.9       497.8       497.8    
        497.7       497.7       497.6       497.6       497.5       497.4       497.4       497.3       497.3       497.2    
        497.2       497.1       497.1       497.1       497.0       497.0       497.0       496.9       496.9       496.9    
        496.9       496.8       496.8       496.8       496.8       496.8       496.8       496.8       496.8       496.7    
        496.7       496.7       496.7       496.7       496.7       496.7       496.7       496.7       496.7       496.7    
        496.7       496.7       496.7       496.7       496.7       496.7       496.7       496.7       496.7       496.7    
        496.7       496.7       496.7       496.7       496.7       496.7       496.7       496.7       496.7       496.8    
        496.8       496.8       496.8       496.8       496.9       496.9       496.9       496.9       496.9       497.0    
        497.0       497.0       497.0       497.1       497.1       497.1       497.1       497.1       497.1       497.1    
        497.1       497.1       497.1       497.2      -999.0    
  38   -999.0       505.8       504.1       502.8       501.8       501.0       500.4       499.9       499.5       499.2    
        499.0       498.8       498.7       498.6       498.5       498.4       498.3       498.2       498.2       498.2    
        498.1       498.1       498.1       498.0       498.0       498.0       498.0       497.9       497.9       497.9    
        497.9       497.9       497.9       497.9       497.9       497.9       497.9       497.8       497.8       497.8    
        497.7       497.7       497.6       497.5       497.5       497.4       497.3       497.3       497.2       497.1    
        497.1       497.1       497.0       497.0       497.0       496.9       496.9       496.9       496.9       496.8    
        496.8       496.8       496.8       496.8       496.8       496.8       496.7       496.7       496.7       496.7    
        496.7       496.7       496.7       496.7       496.7       496.7       496.7       496.7       496.7       496.7    
        496.7       496.7       496.7       496.7       496.7       496.7       496.7       496.7       496.7       496.7    
        496.7       496.7       496.7       496.7       496.7       496.7       496.7       496.7       496.7       496.8    
        496.8       496.8       496.8       496.8       496.8       496.9       496.9       496.9       496.9       497.0    
        497.0       497.0       497.0       497.1       497.1       497.1       497.1       497.1       497.1       497.1    
        497.1       497.1       497.1       497.2      -999.0    
  39   -999.0       505.7       504.0       502.7       501.7       500.9       500.3       499.9       499.5       499.2    
        499.0       498.8       498.7       498.5       498.4       498.4       498.3       498.2       498.2       498.1    
        498.1       498.1       498.0       498.0       498.0       498.0       497.9       497.9       497.9       497.9    
        497.9       497.9       497.9       497.9       497.9       497.9       497.8       497.8       497.8       497.7    
        497.7       497.6       497.6       497.5       497.4       497.3       497.3       497.2       497.1       497.1    
        497.0       497.0       497.0       496.9       496.9       496.9       496.9       496.8       496.8       496.8    
        496.8       496.8       496.7       496.7       496.7       496.7       496.7       496.7       496.7       496.7    
        496.7       496.7       496.7       496.7       496.7       496.6       496.6       496.6       496.6       496.6    
        496.6       496.6       496.6       496.6       496.6       496.6       496.6       496.6       496.6       496.7    
        496.7       496.7       496.7       496.7       496.7       496.7       496.7       496.7       496.7       496.8    
        496.8       496.8       496.8       496.8       496.8       496.9       496.9       496.9       496.9       497.0    
        497.0       497.0       497.0       497.1       497.1       497.1       497.1       497.1       497.1       497.1    
        497.1       497.1       497.1       497.2      -999.0    
  40   -999.0       505.5       504.0       502.7       501.6       500.9       500.3       499.9       499.5       499.2    
        499.0       498.8       498.7       498.5       498.4       498.4       498.3       498.2       498.2       498.1    
        498.1       498.1       498.0       498.0       498.0       497.9       497.9       497.9       497.9       497.9    
        497.9       497.9       497.9       497.9       497.9       497.8       497.8       497.8       497.8       497.7    
        497.7       497.6       497.5       497.5       497.4       497.3       497.2       497.1       497.1       497.0    
        497.0       496.9       496.9       496.9       496.9       496.8       496.8       496.8       496.8       496.7    
        496.7       496.7       496.7       496.7       496.7       496.7       496.7       496.7       496.6       496.6    
        496.6       496.6       496.6       496.6       496.6       496.6       496.6       496.6       496.6       496.6    
        496.6       496.6       496.6       496.6       496.6       496.6       496.6       496.6       496.6       496.6    
        496.6       496.6       496.7       496.7       496.7       496.7       496.7       496.7       496.7       496.7    
        496.8       496.8       496.8       496.8       496.8       496.9       496.9       496.9       496.9       497.0    
        497.0       497.0       497.0       497.1       497.1       497.1       497.1       497.1       497.1       497.1    
        497.1       497.1       497.1       497.2      -999.0    
  41   -999.0       505.4       503.9       502.6       501.6       500.9       500.3       499.8       499.5       499.2    
        499.0       498.8       498.7       498.5       498.4       498.3       498.3       498.2       498.2       498.1    
        498.1       498.1       498.0       498.0       498.0       497.9       497.9       497.9       497.9       497.9    
        497.9       497.9       497.9       497.8       497.8       497.8       497.8       497.7       497.7       497.7    
        497.6       497.6       497.5       497.4       497.3       497.2       497.1       497.0       497.0       496.9    
        496.9       496.9       496.8       496.8       496.8       496.8       496.8       496.7       496.7       496.7    
        496.7       496.7       496.7       496.7       496.6       496.6       496.6       496.6       496.6       496.6    
        496.6       496.6       496.6       496.6       496.6       496.6       496.6       496.6       496.6       496.6    
        496.6       496.6       496.6       496.6       496.6       496.6       496.6       496.6       496.6       496.6    
        496.6       496.6       496.6       496.7       496.7       496.7       496.7       496.7       496.7       496.7    
        496.8       496.8       496.8       496.8       496.8       496.9       496.9       496.9       496.9       497.0    
        497.0       497.0       497.0       497.1       497.1       497.1       497.1       497.1       497.1       497.1    
        497.1       497.1       497.1       497.2      -999.0    
  42   -999.0       505.3       503.8       502.5       501.6       500.8       500.3       499.8       499.5       499.2    
        499.0       498.8       498.6       498.5       498.4       498.3       498.3       498.2       498.2       498.1    
        498.1       498.0       498.0       498.0       498.0       497.9       497.9       497.9       497.9       497.8    
        497.8       497.8       497.8       497.8       497.8       497.7       497.7       497.7       497.7       497.6    
        497.5       497.5       497.4       497.3       497.3       497.2       497.0       496.9       496.9       496.9    
        496.8       496.8       496.8       496.8       496.7       496.7       496.7       496.7       496.7       496.7    
        496.6       496.6       496.6       496.6       496.6       496.6       496.6       496.6       496.6       496.6    
        496.6       496.6       496.6       496.6       496.6       496.6       496.6       496.6       496.6       496.6    
        496.6       496.6       496.6       496.6       496.6       496.6       496.6       496.6       496.6       496.6    
        496.6       496.6       496.6       496.6       496.7       496.7       496.7       496.7       496.7       496.7    
        496.8       496.8       496.8       496.8       496.8       496.9       496.9       496.9       496.9       497.0    
        497.0       497.0       497.0       497.1       497.1       497.1       497.1       497.1       497.1       497.1    
        497.1       497.1       497.1       497.2      -999.0    
  43   -999.0       505.1       503.7       502.5       501.5       500.8       500.2       499.8       499.5       499.2    
        499.0       498.8       498.6       498.5       498.4       498.3       498.3       498.2       498.2       498.1    
        498.1       498.0       498.0       498.0       497.9       497.9       497.9       497.9       497.8       497.8    
        497.8       497.8       497.8       497.8       497.7       497.7       497.7       497.6       497.6       497.6    
        497.5       497.4       497.4       497.3       497.2       497.1       497.0       496.9       496.9       496.8    
[...]
  0  0.9274E-04  0  0.8813E-04  0  0.6258E-04  0  0.4394E-04  0  0.4111E-04
   (  5, 16, 52)  (  5, 16, 52)  (  5, 16, 52)  (  5, 15, 51)  (  5, 15, 51)
  1  0.1635E-04  0 -0.1686E-04  0 -0.2431E-04  0 -0.3760E-04  0 -0.4618E-04
   (  5,125, 57)  (  5,125, 56)  (  5, 17, 55)  (  5, 17, 55)  (  5, 17, 54)
  0 -0.5236E-04  0 -0.4184E-04  0 -0.6211E-04  0 -0.6434E-04  0 -0.6961E-04
   (  5, 17, 54)  (  5, 17, 54)  (  5, 17, 54)  (  5, 17, 54)  (  5, 17, 54)
  0 -0.8267E-04  0 -0.8128E-04  0 -0.8223E-04  0 -0.8125E-04  0 -0.9852E-04
   (  5, 17, 55)  (  5, 17, 55)  (  5, 17, 55)  (  5, 17, 55)  (  5, 17, 55)
  0 -0.7813E-04  0 -0.8285E-04  0 -0.9219E-04  0 -0.9663E-04  0 -0.8858E-04
   (  5, 16, 56)  (  5, 16, 56)  (  5, 16, 56)  (  5, 16, 56)  (  5, 16, 56)
  0 -0.7909E-04  0 -0.7021E-04  0 -0.6197E-04  0 -0.4761E-04  0 -0.3520E-04
   (  5, 16, 56)  (  5, 16, 56)  (  5, 16, 56)  (  5, 16, 57)  (  5, 16, 57)
  0 -0.2748E-04  0 -0.2469E-04  0 -0.2396E-04  0 -0.2679E-04  0 -0.1964E-04
   (  1,  4, 50)  (  1,  4, 50)  (  1,  4, 50)  (  1,  4, 50)  (  1,  4, 49)
  1  0.9249E-05  0  0.1800E-04  0  0.2434E-04  0  0.2708E-04  0  0.3807E-04
   (  5,100, 78)  (  5, 16, 54)  (  5, 16, 54)  (  5, 16, 54)  (  5, 17, 54)
  0  0.4714E-04  0  0.5019E-04  0  0.5389E-04  0  0.5293E-04  0  0.4679E-04
   (  5, 17, 54)  (  5, 17, 54)  (  5, 17, 54)  (  5, 16, 54)  (  5, 16, 54)
  0  0.6148E-04  0  0.6724E-04  0  0.7223E-04  0  0.6541E-04  0  0.6767E-04
   (  5, 16, 54)  (  5, 16, 54)  (  5, 16, 54)  (  5, 16, 54)  (  5, 16, 54)
  0  0.6023E-04  0  0.4743E-04  0  0.4597E-04  0  0.4320E-04  0  0.4492E-04
   (  5, 16, 54)  (  5, 16, 54)  (  5, 16, 53)  (  5, 16, 53)  (  5, 16, 53)
  0  0.3559E-04  0  0.3111E-04  0  0.2758E-04  0  0.2643E-04  0  0.2370E-04
   (  5, 16, 53)  (  5, 16, 53)  (  5, 16, 53)  (  5, 16, 53)  (  5, 16, 52)
  0  0.2022E-04  0  0.1722E-04  0  0.1306E-04  0  0.1032E-04  0 -0.7725E-05
   (  5, 16, 52)  (  5, 16, 52)  (  5, 15, 53)  (  5, 15, 52)  (  1,  4, 37)
  1 -0.6231E-05  0 -0.5226E-05  0 -0.9712E-05  0 -0.1397E-04  0 -0.1713E-04
   (  5,125, 55)  (  5, 16, 55)  (  5, 17, 54)  (  5, 17, 54)  (  5, 17, 54)
  0 -0.1943E-04  0 -0.2034E-04  0 -0.2257E-04  0 -0.2323E-04  0 -0.2707E-04
   (  5, 17, 54)  (  5, 17, 54)  (  5, 17, 54)  (  5, 17, 54)  (  5, 17, 54)
  0 -0.3307E-04  0 -0.3081E-04  0 -0.3178E-04  0 -0.2955E-04  0 -0.3517E-04
   (  5, 17, 54)  (  5, 17, 54)  (  5, 17, 55)  (  5, 17, 55)  (  5, 17, 54)
  0 -0.2845E-04  0 -0.3560E-04  0 -0.3772E-04  0 -0.3673E-04  0 -0.3350E-04
   (  5, 16, 55)  (  5, 16, 55)  (  5, 16, 55)  (  5, 16, 55)  (  5, 16, 55)
  0 -0.2843E-04  0 -0.2467E-04  0 -0.1997E-04  0 -0.1373E-04  0 -0.1049E-04
   (  5, 16, 55)  (  5, 16, 56)  (  5, 16, 56)  (  5, 16, 56)  (  5, 16, 56)
  0 -0.9548E-05  0 -0.9317E-05  0 -0.9891E-05  0 -0.8904E-05  0  0.8272E-05
   (  5, 16, 56)  (  1,  4, 28)  (  1,  4, 28)  (  1,  4, 28)  (  5, 17, 54)
  1 -0.3995E-05  0  0.5605E-05  0  0.1016E-04  0  0.1312E-04  0  0.1490E-04
   (  5,106, 70)  (  5, 16, 54)  (  5, 16, 54)  (  5, 16, 54)  (  5, 17, 54)
  0  0.1425E-04  0  0.1622E-04  0  0.1990E-04  0  0.2332E-04  0  0.2372E-04
   (  5, 17, 54)  (  5, 17, 54)  (  5, 17, 54)  (  5, 17, 54)  (  5, 16, 54)
  0  0.2018E-04  0  0.1948E-04  0  0.2431E-04  0  0.2173E-04  0  0.1770E-04
   (  5, 16, 54)  (  5, 16, 54)  (  5, 16, 54)  (  5, 16, 54)  (  5, 16, 54)
  0  0.2007E-04  0  0.2117E-04  0  0.1925E-04  0  0.1766E-04  0  0.1462E-04
   (  5, 16, 54)  (  5, 16, 54)  (  5, 16, 54)  (  5, 16, 54)  (  5, 16, 53)
  0  0.1091E-04  0  0.1251E-04  0  0.1053E-04  0  0.8602E-05  0  0.7406E-05
   (  5, 16, 53)  (  5, 16, 53)  (  5, 16, 53)  (  5, 16, 53)  (  5, 16, 52)
  0  0.6104E-05  0  0.4298E-05  0 -0.3529E-05  0 -0.3819E-05  0 -0.2682E-05
   (  5, 16, 52)  (  5, 16, 52)  (  3,  4, 51)  (  1,  4, 39)  (  1,  4, 39)
  1  0.2479E-05  0 -0.2194E-05  0 -0.3578E-05  0 -0.4839E-05  0 -0.6416E-05
   (  5,125, 57)  (  5, 16, 55)  (  5, 16, 55)  (  5, 17, 54)  (  5, 17, 54)
  0 -0.7237E-05  0 -0.8021E-05  0 -0.9267E-05  0 -0.1036E-04  0 -0.8632E-05
   (  5, 16, 55)  (  5, 16, 55)  (  5, 16, 55)  (  5, 17, 54)  (  5, 17, 54)
  0 -0.1101E-04  0 -0.1100E-04  0 -0.1066E-04  0 -0.1305E-04  0 -0.1424E-04
   (  5, 17, 54)  (  5, 17, 54)  (  5, 17, 54)  (  5, 17, 54)  (  5, 16, 55)
  0 -0.1313E-04  0 -0.1020E-04  0 -0.1216E-04  0 -0.1262E-04  0 -0.1213E-04
   (  5, 16, 55)  (  5, 16, 55)  (  5, 16, 55)  (  5, 16, 55)  (  5, 16, 55)
  0 -0.1042E-04  0 -0.8849E-05  0 -0.6913E-05  0 -0.5086E-05  0 -0.3993E-05
   (  5, 16, 55)  (  5, 16, 55)  (  5, 16, 55)  (  5, 16, 55)  (  5, 16, 55)
  0 -0.2599E-05  0 -0.2982E-05  0 -0.3266E-05  0 -0.2859E-05  0  0.2508E-05
   (  5, 16, 55)  (  1,  4, 28)  (  1,  4, 28)  (  1,  4, 28)  (  5, 17, 53)
  1  0.1321E-05  0  0.2190E-05  0  0.3642E-05  0  0.4309E-05  0  0.4583E-05
   (  5, 97, 80)  (  5, 16, 54)  (  5, 16, 54)  (  5, 16, 54)  (  5, 17, 54)
  0  0.5711E-05  0  0.6383E-05  0  0.7458E-05  0  0.8364E-05  0  0.9043E-05
   (  5, 17, 54)  (  5, 17, 54)  (  5, 17, 54)  (  5, 17, 54)  (  5, 16, 54)
  0  0.9354E-05  0  0.8477E-05  0  0.6775E-05  0  0.7431E-05  0  0.8500E-05
   (  5, 16, 54)  (  5, 16, 54)  (  5, 16, 54)  (  5, 16, 54)  (  5, 16, 54)
  0  0.6953E-05  0  0.5734E-05  0  0.6409E-05  0  0.6234E-05  0  0.5252E-05
   (  5, 16, 54)  (  5, 16, 54)  (  5, 16, 54)  (  5, 16, 54)  (  5, 16, 54)
  0  0.3924E-05  0  0.4326E-05  0  0.3711E-05  0  0.2990E-05  0  0.2485E-05
   (  5, 16, 53)  (  5, 16, 53)  (  5, 16, 53)  (  5, 16, 53)  (  5, 16, 53)
  0  0.1999E-05  0  0.1331E-05  0 -0.1260E-05  0 -0.1384E-05  0 -0.9726E-06
   (  5, 16, 52)  (  5, 16, 52)  (  3,  4, 51)  (  3,  4, 51)  (  1,  4, 40)
  1  0.9331E-06  0 -0.7878E-06  0 -0.1337E-05  0 -0.1780E-05  0 -0.2327E-05
   (  5,125, 56)  (  5, 16, 55)  (  5, 16, 55)  (  5, 16, 55)  (  5, 16, 55)
  0 -0.2648E-05  0 -0.3014E-05  0 -0.3444E-05  0 -0.3735E-05  0 -0.3234E-05
   (  5, 16, 55)  (  5, 16, 55)  (  5, 16, 55)  (  5, 16, 55)  (  5, 17, 54)
  0 -0.4192E-05  0 -0.4364E-05  0 -0.3945E-05  0 -0.4405E-05  0 -0.4827E-05
   (  5, 17, 54)  (  5, 17, 54)  (  5, 17, 54)  (  5, 16, 55)  (  5, 16, 55)
  0 -0.3908E-05  0 -0.4421E-05  0 -0.4949E-05  0 -0.4691E-05  0 -0.4390E-05
   (  5, 16, 55)  (  5, 16, 55)  (  5, 16, 55)  (  5, 16, 55)  (  5, 16, 55)
  0 -0.3789E-05  0 -0.3136E-05  0 -0.2471E-05  0 -0.1731E-05  0 -0.1395E-05
   (  5, 16, 55)  (  5, 16, 55)  (  5, 16, 55)  (  5, 16, 55)  (  5, 16, 55)
  0 -0.1102E-05  0 -0.1125E-05  0 -0.1188E-05  0 -0.1026E-05  0  0.9295E-06
   (  5, 16, 55)  (  1,  4, 43)  (  1,  4, 43)  (  1,  4, 42)  (  5, 17, 53)
  1  0.4879E-06  0  0.8010E-06  0  0.1378E-05  0  0.1721E-05  0  0.1894E-05
   (  5, 97, 80)  (  5, 16, 54)  (  5, 16, 54)  (  5, 16, 54)  (  5, 17, 54)
  0  0.2007E-05  0  0.2148E-05  0  0.2697E-05  0  0.2988E-05  0  0.3277E-05
   (  5, 17, 54)  (  5, 17, 54)  (  5, 17, 54)  (  5, 17, 54)  (  5, 16, 55)
  0  0.3419E-05  0  0.3307E-05  0  0.2790E-05  0  0.2302E-05  0  0.3020E-05
   (  5, 16, 54)  (  5, 16, 54)  (  5, 16, 54)  (  5, 16, 54)  (  5, 16, 54)
  0  0.2827E-05  0  0.2248E-05  1 -0.3623E-06
   (  5, 16, 54)  (  5, 16, 54)  (  5,124, 60)

 MAXIMUM RESIDUAL FOR EACH ITERATION (1 INDICATES THE FIRST INNER ITERATION):

    RESIDUAL       RESIDUAL       RESIDUAL       RESIDUAL       RESIDUAL    
   LAYER,ROW,COL  LAYER,ROW,COL  LAYER,ROW,COL  LAYER,ROW,COL  LAYER,ROW,COL
 ---------------------------------------------------------------------------
  1  -1118.      0  -2265.      0  -2246.      0  -2722.      0  -2877.    
   (  1,106, 97)  (  1,106, 95)  (  2, 18,121)  (  2, 18,121)  (  2, 18,121)
  0  -2748.      0  -2460.      0  -2042.      0   1686.      0  -1556.    
   (  2, 18,121)  (  2, 18,121)  (  2, 18,121)  (  1, 19,121)  (  2,127,123)
  0  -1354.      0  -1048.      0  -759.9      0  -511.3      0  -473.7    
   (  2,127,123)  (  2,128,123)  (  2,128,123)  (  2,129,123)  (  1, 83, 85)
  0  -449.9      0  -437.3      0   526.7      0   644.2      0   666.0    
   (  1, 83, 85)  (  1, 83, 85)  (  2,128,123)  (  2,129,123)  (  2,129,123)
  0   624.0      0   514.8      0  -406.3      0  -419.3      0  -402.5    
   (  2,129,123)  (  2,129,123)  (  2, 20,121)  (  2, 20,121)  (  2, 20,121)
  0  -415.6      0  -431.0      0  -425.3      0  -448.8      0  -463.1    
   (  2, 19,121)  (  2, 19,121)  (  2, 19,121)  (  1, 84, 75)  (  1, 84, 75)
  1  -461.1      0  -450.8      0  -426.7      0  -395.1      0  -360.3    
   (  1, 84, 75)  (  1, 84, 75)  (  1, 84, 75)  (  1, 84, 75)  (  1, 84, 75)
  0  -323.3      0  -292.9      0  -251.1      0   303.8      0   327.7    
   (  1, 84, 75)  (  1, 84, 75)  (  1, 84, 75)  (  2,129,123)  (  2,129,123)
  0   306.2      0   246.5      0   193.2      0   215.7      0   235.2    
   (  2,129,123)  (  2,129,123)  (  1, 19,121)  (  1, 19,121)  (  1, 19,121)
  0   248.5      0   260.0      0   269.6      0  -275.1      0   265.9    
   (  1, 19,121)  (  1, 19,121)  (  1, 19,121)  (  2,129,123)  (  1, 19,121)
  0   245.7      0   265.1      0   286.7      0   296.8      0   293.5    
   (  1, 84, 75)  (  1, 84, 75)  (  1, 84, 75)  (  1, 84, 75)  (  1, 84, 75)
  0   295.7      0   293.6      0   279.9      0   265.0      0   249.7    
   (  1, 84, 75)  (  1, 84, 75)  (  1, 84, 75)  (  1, 84, 75)  (  1, 84, 75)
  1   245.2      0   239.4      0   232.3      0   219.2      0   203.5    
   (  1, 84, 75)  (  1, 84, 75)  (  1, 84, 75)  (  1, 84, 75)  (  1, 84, 75)
  0   189.7      0   176.6      0   156.7      0   133.0      0  -119.8    
   (  1, 84, 75)  (  1, 84, 75)  (  1, 84, 75)  (  1, 84, 75)  (  2,124,121)
  0  -118.7      0   118.8      0   113.8      0   105.0      0   92.18    
   (  2,124,121)  (  1, 19,121)  (  1, 19,121)  (  1, 19,121)  (  1, 19,121)
  0   78.37      0   67.21      0   75.62      0   97.30      0   105.9    
   (  1, 19,121)  (  1, 19,121)  (  2,128,123)  (  2,128,123)  (  2,129,123)
  0   103.8      0   88.41      0  -69.47      0  -72.52      0  -73.21    
   (  2,129,123)  (  2,129,123)  (  1, 84, 75)  (  1, 84, 75)  (  1, 84, 75)
  0  -72.62      0  -72.09      0  -72.65      0  -72.37      0  -71.05    
   (  1, 84, 75)  (  1, 84, 75)  (  1, 84, 75)  (  1, 84, 75)  (  1, 84, 75)
  1  -70.30      0  -68.48      0  -64.99      0  -61.17      0  -58.70    
   (  1, 84, 75)  (  1, 84, 75)  (  1, 84, 75)  (  1, 84, 76)  (  1, 84, 76)
  0  -55.41      0  -52.21      0   53.93      0   64.09      0   70.38    
   (  1, 84, 76)  (  1, 84, 76)  (  2,129,123)  (  2,129,123)  (  2,128,123)
  0   65.09      0   49.38      0   42.47      0   48.48      0   54.62    
   (  2,128,123)  (  2,128,123)  (  1, 19,121)  (  1, 19,121)  (  1, 19,121)
  0   58.32      0   60.99      0  -63.89      0  -61.98      0  -56.48    
   (  1, 19,121)  (  1, 19,121)  (  2,129,123)  (  2,129,123)  (  2,124,121)
  0   48.00      0   52.71      0   56.65      0   57.42      0   56.20    
   (  1, 84, 75)  (  1, 84, 75)  (  1, 84, 75)  (  1, 84, 75)  (  1, 84, 75)
  0   55.81      0   55.91      0   55.35      0   54.08      0   54.41    
   (  1, 84, 75)  (  1, 84, 75)  (  1, 84, 76)  (  1, 84, 76)  (  1, 84, 76)
  1   52.91      0   51.88      0   50.80      0   48.93      0   46.25    
   (  1, 84, 76)  (  1, 84, 76)  (  1, 84, 76)  (  1, 84, 76)  (  1, 84, 76)
  0   43.93      0   41.57      0   37.79      0   33.02      0  -38.39    
   (  1, 84, 76)  (  1, 84, 76)  (  1, 84, 76)  (  1, 84, 76)  (  2,124,121)
  0  -39.29      0  -37.30      0  -35.60      0   30.93      0   27.29    
   (  2,124,121)  (  2,129,123)  (  2,129,123)  (  1, 19,121)  (  1, 19,121)
  0  -23.71      0  -21.04      0   22.46      0   29.59      0   31.44    
   (  1, 21,122)  (  1, 21,122)  (  2,128,123)  (  2,128,123)  (  2,128,123)
  0   27.87      0   22.77      0  -19.31      0   22.09      0   21.31    
   (  2,128,123)  (  2,129,123)  (  1, 84, 75)  (  2,124,121)  (  2,124,121)
  0  -21.56      0  -22.47      0  -22.79      0  -23.20      0  -23.20    
   (  1, 84, 76)  (  1, 84, 76)  (  1, 84, 76)  (  1, 84, 76)  (  1, 84, 76)
  1  -22.95      0  -22.42      0  -21.86      0  -20.50      0  -20.14    
   (  1, 84, 76)  (  1, 84, 76)  (  1, 84, 76)  (  1, 84, 76)  (  1, 84, 76)
  0   19.47      0  -17.29      0  -17.11      0   20.35      0   22.43    
   (  2,124,121)  (  1, 84, 76)  (  1,120,120)  (  2,128,123)  (  2,128,123)
  0   20.29      0   14.96      0  -13.47      0  -14.82      0   16.32    
   (  2,128,123)  (  2,126,123)  (  1, 21,122)  (  1, 21,122)  (  1, 19,121)
  0   17.52      0  -19.42      0  -21.60      0  -20.77      0  -21.20    
   (  1, 19,121)  (  2,129,123)  (  2,129,123)  (  2,129,123)  (  2,123,121)
  0  -17.36      0   16.82      0   17.89      0   18.47      0   18.86    
   (  2,123,121)  (  1, 84, 76)  (  1, 84, 76)  (  1,121,120)  (  1,121,120)
  0   18.70      0   19.12      0   18.79      0   18.72      0   18.59    
   (  1, 84, 76)  (  1, 84, 76)  (  1, 84, 76)  (  1, 84, 76)  (  1, 84, 76)
  1   18.17      0   17.65      0   17.24      0   16.30      0   15.61    
   (  1, 84, 76)  (  1, 84, 76)  (  1, 84, 76)  (  1, 84, 76)  (  1, 84, 76)
  0   15.11      0   14.08      0   13.00      0  -12.80      0  -14.79    
   (  1,122,120)  (  1, 84, 76)  (  1, 84, 76)  (  2,123,121)  (  2,123,121)
  0  -13.33      0  -12.75      0  -12.20      0  -10.10      0   9.139    
   (  2,123,121)  (  2,129,123)  (  2,129,123)  (  2,129,123)  (  1, 19,121)
  0  -8.457      0  -7.685      0   6.492      0   9.427      0   10.35    
   (  1, 21,122)  (  1, 21,122)  (  2,126,123)  (  2,128,123)  (  2,128,123)
  0   9.926      0   8.222      0   7.076      0   8.591      0   8.283    
   (  2,129,123)  (  2,129,123)  (  2,124,121)  (  2,124,121)  (  2,124,121)
  0  -7.628      0  -7.909      0  -7.883      0  -8.095      0  -8.525    
   (  1, 84, 76)  (  1, 84, 76)  (  1, 84, 76)  (  1,121,119)  (  1,121,119)
  1  -7.967      0  -7.605      0  -7.464      0  -7.057      0   7.021    
   (  1,121,119)  (  1, 84, 76)  (  1, 84, 76)  (  1, 84, 76)  (  2,124,121)
  0   7.426      0  -6.350      0  -6.683      0   7.436      0   7.724    
   (  2,124,121)  (  1,120,120)  (  1,120,120)  (  2,128,123)  (  2,127,123)
  0   6.968      0   5.366      0  -4.720      0  -5.241      0   5.372    
   (  2,127,123)  (  2,126,123)  (  1, 21,122)  (  1, 21,122)  (  1, 19,121)
  0   5.829      0  -6.634      0  -7.244      0  -6.946      0  -7.818    
   (  1, 19,121)  (  2,129,123)  (  2,129,123)  (  2,129,123)  (  2,123,121)
  0  -6.635      0   5.950      0   6.983      0   7.142      0   6.857    
   (  2,123,121)  (  1, 84, 76)  (  1,122,120)  (  1,122,120)  (  1,121,120)
  0   6.524      0   6.615      0   6.573      0   6.424      0   6.490    
   (  1, 84, 76)  (  1, 84, 76)  (  1, 84, 76)  (  1, 84, 76)  (  1, 84, 76)
  1   6.259      0   6.166      0   5.976      0   5.703      0   5.668    
   (  1, 84, 76)  (  1, 84, 76)  (  1, 84, 76)  (  1, 84, 76)  (  1,122,120)
  0   6.103      0   5.533      0   4.517      0  -4.937      0  -5.583    
   (  1,122,120)  (  1,122,120)  (  1, 84, 76)  (  2,123,121)  (  2,123,121)
  0  -4.660      0  -4.424      0  -4.101      0  -3.388      0   3.130    
   (  2,123,121)  (  2,129,123)  (  2,129,123)  (  2,129,123)  (  1,120,120)
  0  -2.921      0  -2.687      0   2.411      0   3.346      0   3.719    
   (  1, 21,122)  (  1, 21,122)  (  2,126,123)  (  2,129,123)  (  2,129,123)
  0   3.576      0   2.975      0   2.720      0   3.286      0   3.151    
   (  2,129,123)  (  2,129,123)  (  2,124,121)  (  2,124,121)  (  2,124,121)
  0  -2.701      0  -2.779      0  -2.768      0  -3.045      0  -3.222    
   (  1, 84, 76)  (  1, 84, 76)  (  1, 84, 76)  (  1,121,119)  (  1,121,119)
  1  -3.096      0  -2.661      0  -2.593      0  -2.460      0   2.596    
   (  1,121,119)  (  1, 84, 76)  (  1, 84, 76)  (  1, 84, 76)  (  2,124,121)
  0   2.790      0  -2.499      0  -2.604      0   2.695      0   2.796    
   (  2,124,121)  (  1,120,120)  (  1,120,120)  (  2,128,123)  (  2,127,123)
  0   2.562      0   1.934      0  -1.726      0  -1.881      0   1.976    
   (  2,127,123)  (  2,126,123)  (  1, 21,122)  (  1, 21,122)  (  1,120,120)
  0   1.948      0  -2.246      0  -2.491      0  -2.467      0  -2.880    
   (  1, 19,121)  (  2,129,123)  (  2,129,123)  (  2,124,121)  (  2,123,121)
  0  -2.525      0   2.260      0   2.769      0   2.894      0   2.632    
   (  2,123,121)  (  1,122,120)  (  1,122,120)  (  1,122,120)  (  1,122,120)
  0   2.305      0   2.339      0   2.310      0   2.255      0   2.288    
   (  1, 84, 76)  (  1, 84, 76)  (  1, 84, 76)  (  1, 84, 76)  (  1, 84, 76)
  1   2.198      0   2.171      0   2.108      0   1.996      0   2.241    
   (  1, 84, 76)  (  1, 84, 76)  (  1, 84, 76)  (  1, 84, 76)  (  1,122,120)
  0   2.340      0   2.121      0   1.605      0  -1.877      0  -2.080    
   (  1,122,120)  (  1,122,120)  (  1,122,120)  (  2,123,121)  (  2,123,121)
  0  -1.720      0  -1.545      0  -1.419      0  -1.169      0   1.202    
   (  2,123,121)  (  2,129,123)  (  2,129,123)  (  2,129,123)  (  1,120,120)
  0   1.088      0 -0.9359      1 -0.9171    
   (  2,123,121)  (  1, 21,122)  (  1, 21,122)



 HEAD/DRAWDOWN PRINTOUT FLAG = 1     TOTAL BUDGET PRINTOUT FLAG = 1
 CELL-BY-CELL FLOW TERM FLAG = 1

 OUTPUT FLAGS FOR ALL LAYERS ARE THE SAME:
   HEAD    DRAWDOWN  HEAD  DRAWDOWN
 PRINTOUT  PRINTOUT  SAVE    SAVE
 ----------------------------------
     0         0       1       0

 SAVING SATURATED THICKNESS AND FLOW TERMS ON UNIT   39 FOR MT3DMS
 BY THE LINK-MT3DMS PACKAGE V6.0 AT TIME STEP    1, STRESS PERIOD    4


 HEAD WILL BE SAVED ON UNIT   30 AT END OF TIME STEP   1, STRESS PERIOD    4
1
  VOLUMETRIC BUDGET FOR ENTIRE MODEL AT END OF TIME STEP  1 IN STRESS PERIOD   4
  ------------------------------------------------------------------------------

     CUMULATIVE VOLUMES      L**3       RATES FOR THIS TIME STEP      L**3/T
     ------------------                 ------------------------

           IN:                                      IN:
           ---                                      ---
             STORAGE =     4541316.5000               STORAGE =       54953.1562
       CONSTANT HEAD =   579451392.0000         CONSTANT HEAD =    28986272.0000
               WELLS =       60450.0000                 WELLS =        1860.0000
            RECHARGE =   222644400.0000              RECHARGE =    11132220.0000

            TOTAL IN =   806697600.0000              TOTAL IN =    40175304.0000

          OUT:                                     OUT:
          ----                                     ----
             STORAGE =     4090250.0000               STORAGE =          72.2510
       CONSTANT HEAD =   802547520.0000         CONSTANT HEAD =    40173432.0000
               WELLS =       60450.0000                 WELLS =        1860.0000
            RECHARGE =           0.0000              RECHARGE =           0.0000

           TOTAL OUT =   806698240.0000             TOTAL OUT =    40175364.0000

            IN - OUT =        -640.0000              IN - OUT =         -60.0000

 PERCENT DISCREPANCY =           0.00     PERCENT DISCREPANCY =           0.00






          TIME SUMMARY AT END OF TIME STEP   1 IN STRESS PERIOD    4
                    SECONDS     MINUTES      HOURS       DAYS        YEARS
                    -----------------------------------------------------------
   TIME STEP LENGTH 1.57788E+08 2.62980E+06  43830.      1826.2      5.0000    
 STRESS PERIOD TIME 1.57788E+08 2.62980E+06  43830.      1826.2      5.0000    
         TOTAL TIME 6.31152E+08 1.05192E+07 1.75320E+05  7305.0      20.000    
1
