                                  MODFLOW-2000
      U.S. GEOLOGICAL SURVEY MODULAR FINITE-DIFFERENCE GROUND-WATER FLOW MODEL
                             VERSION 1.10 07/26/2002


 This model run combines GLOBAL and LIST output into this single file.

 GLOBAL LISTING FILE: optdemo_coarse.lst
                         UNIT   26

 OPENING TEST_coarse.ba6
 FILE TYPE:BAS6   UNIT    1   STATUS:OLD    
 FORMAT:FORMATTED              ACCESS:SEQUENTIAL          

 OPENING TEST_coarse.bc6
 FILE TYPE:BCF6   UNIT   11   STATUS:OLD    
 FORMAT:FORMATTED              ACCESS:SEQUENTIAL          

 OPENING optdemo_coarse.oc
 FILE TYPE:OC   UNIT   10   STATUS:OLD    
 FORMAT:FORMATTED              ACCESS:SEQUENTIAL          

 OPENING optdemo_coarse.ufh
 FILE TYPE:DATA(BINARY)   UNIT   30   STATUS:UNKNOWN
 FORMAT:UNFORMATTED            ACCESS:SEQUENTIAL          

 OPENING optdemo_coarse.ccf
 FILE TYPE:DATA(BINARY)   UNIT   40   STATUS:UNKNOWN
 FORMAT:UNFORMATTED            ACCESS:SEQUENTIAL          

 OPENING HEAD2002_coarse.ufh
 FILE TYPE:DATA(BINARY)   UNIT   51   STATUS:UNKNOWN
 FORMAT:UNFORMATTED            ACCESS:SEQUENTIAL          

 OPENING optdemo_coarse.pcg
 FILE TYPE:PCG   UNIT   12   STATUS:OLD    
 FORMAT:FORMATTED              ACCESS:SEQUENTIAL          

 OPENING optdemo.wel
 FILE TYPE:WEL   UNIT   13   STATUS:OLD    
 FORMAT:FORMATTED              ACCESS:SEQUENTIAL          

 OPENING optdemo_coarse.rch
 FILE TYPE:RCH   UNIT   20   STATUS:OLD    
 FORMAT:FORMATTED              ACCESS:SEQUENTIAL          

 OPENING optdemo_coarse.lmt
 FILE TYPE:LMT6   UNIT   29   STATUS:OLD    
 FORMAT:FORMATTED              ACCESS:SEQUENTIAL          

 OPENING TEST_coarse.dis
 FILE TYPE:DIS   UNIT   14   STATUS:OLD    
 FORMAT:FORMATTED              ACCESS:SEQUENTIAL          

 THE FREE FORMAT OPTION HAS BEEN SELECTED

 DISCRETIZATION INPUT DATA READ FROM UNIT   14
    5 LAYERS        66 ROWS        64 COLUMNS
    1 STRESS PERIOD(S) IN SIMULATION
 MODEL TIME UNIT IS YEARS
 MODEL LENGTH UNIT IS UNDEFINED
 THE GROUND-WATER TRANSPORT PROCESS IS INACTIVE

 THE OBSERVATION PROCESS IS INACTIVE
 THE SENSITIVITY PROCESS IS INACTIVE
 THE PARAMETER-ESTIMATION PROCESS IS INACTIVE

 MODE: FORWARD

  Confining bed flag for each layer:
   0   0   0   0   0

     190210  ELEMENTS OF GX ARRAY USED OUT OF     190210
      21120  ELEMENTS OF GZ ARRAY USED OUT OF      21120
      21120  ELEMENTS OF IG ARRAY USED OUT OF      21120



                               DELR
 READING ON UNIT   14 WITH FORMAT: (10F13.0)           



                               DELC
 READING ON UNIT   14 WITH FORMAT: (10F13.0)           

 TOP ELEVATION OF LAYER 1 =   999.000    



             MODEL LAYER BOTTOM EL. FOR LAYER   1
 READING ON UNIT   14 WITH FORMAT: (10F13.0)           

            1           2           3           4           5           6           7           8           9          10
           11          12          13          14          15          16          17          18          19          20
           21          22          23          24          25          26          27          28          29          30
           31          32          33          34          35          36          37          38          39          40
           41          42          43          44          45          46          47          48          49          50
           51          52          53          54          55          56          57          58          59          60
           61          62          63          64
 ........................................................................................................................
   1    0.000       0.000       0.000       0.000       0.000       0.000       0.000       0.000       0.000       0.000    
        0.000       0.000       0.000       0.000       0.000       0.000       0.000       0.000       0.000       0.000    
        0.000       0.000       0.000       0.000       0.000       0.000       0.000       0.000       0.000       0.000    
        0.000       0.000       0.000       0.000       0.000       0.000       0.000       0.000       0.000       0.000    
        0.000       0.000       0.000       0.000       0.000       0.000       0.000       0.000       0.000       0.000    
        0.000       0.000       0.000       0.000       0.000       0.000       0.000       0.000       0.000       0.000    
        0.000       0.000       0.000       0.000    
   2    0.000       489.2       488.7       488.5       488.5       488.5       488.5       488.5       488.5       488.5    
        488.5       488.5       488.4       488.4       488.4       488.3       488.3       488.3       488.3       488.2    
        488.2       488.2       488.2       488.2       488.2       488.1       488.1       488.1       488.1       488.1    
        488.1       488.1       488.1       488.1       488.1       488.1       488.1       488.0       488.0       488.0    
        488.0       488.0       488.0       488.0       488.0       488.0       487.9       487.9       487.9       487.8    
        487.8       487.8       487.7       487.7       487.6       487.6       487.5       487.4       487.2       486.9    
        486.6       486.0       485.6       0.000    
   3    0.000       491.1       491.0       490.8       490.7       490.7       490.7       490.7       490.6       490.6    
        490.6       490.6       490.6       490.5       490.5       490.5       490.5       490.4       490.4       490.4    
        490.4       490.4       490.4       490.4       490.4       490.4       490.4       490.4       490.4       490.4    
        490.4       490.4       490.4       490.4       490.4       490.4       490.4       490.4       490.4       490.4    
        490.4       490.4       490.4       490.4       490.4       490.4       490.4       490.4       490.4       490.4    
        490.4       490.4       490.4       490.3       490.3       490.3       490.2       490.2       490.0       489.8    
        489.4       488.6       488.2       0.000    
   4    0.000       492.7       492.7       492.6       492.5       492.4       492.4       492.3       492.3       492.2    
        492.2       492.1       492.1       492.1       492.0       492.0       492.0       492.0       492.0       492.0    
        492.0       492.0       492.0       492.0       492.0       492.0       492.0       492.0       492.0       492.0    
        492.0       492.0       492.1       492.1       492.1       492.1       492.1       492.1       492.1       492.1    
        492.1       492.1       492.1       492.1       492.1       492.2       492.2       492.2       492.2       492.2    
        492.3       492.3       492.3       492.3       492.4       492.4       492.4       492.4       492.3       492.1    
        491.7       491.0       490.6       0.000    
   5    0.000       493.6       493.8       493.8       493.7       493.6       493.4       493.3       493.2       493.1    
        493.1       493.0       493.0       492.9       492.9       492.9       492.9       492.9       492.9       492.9    
        492.9       492.9       492.9       492.9       492.9       492.9       493.0       493.0       493.0       493.0    
        493.0       493.0       493.0       493.0       493.0       493.0       493.0       493.0       493.1       493.1    
        493.1       493.1       493.1       493.1       493.2       493.2       493.2       493.3       493.3       493.4    
        493.4       493.5       493.5       493.5       493.6       493.7       493.7       493.7       493.7       493.6    
        493.2       492.7       492.5       0.000    
   6    0.000       494.2       494.4       494.5       494.4       494.2       494.1       493.9       493.7       493.6    
        493.5       493.4       493.3       493.3       493.2       493.2       493.2       493.2       493.2       493.3    
        493.3       493.3       493.3       493.3       493.3       493.3       493.4       493.4       493.4       493.4    
        493.4       493.4       493.4       493.4       493.4       493.5       493.5       493.5       493.5       493.5    
        493.5       493.6       493.6       493.6       493.6       493.7       493.7       493.8       493.8       493.9    
        494.0       494.1       494.1       494.2       494.3       494.3       494.4       494.5       494.5       494.4    
        494.1       493.9       493.8       0.000    
   7    0.000       494.6       494.7       494.8       494.8       494.6       494.3       494.1       493.8       493.7    
        493.5       493.4       493.3       493.3       493.2       493.2       493.1       493.1       493.1       493.1    
        493.1       493.2       493.2       493.2       493.2       493.3       493.3       493.3       493.3       493.3    
        493.3       493.4       493.4       493.4       493.4       493.5       493.5       493.5       493.6       493.6    
        493.6       493.6       493.7       493.7       493.8       493.8       493.9       494.0       494.0       494.1    
        494.2       494.3       494.4       494.5       494.6       494.7       494.8       494.8       494.9       494.8    
        494.7       494.6       494.6       0.000    
   8    0.000       494.8       494.9       495.0       494.9       494.7       494.4       494.1       493.8       493.6    
        493.4       493.3       493.2       493.1       493.0       492.9       492.8       492.8       492.8       492.8    
        492.8       492.8       492.8       492.9       492.9       492.9       492.9       492.9       493.0       493.0    
        493.0       493.0       493.0       493.1       493.1       493.1       493.2       493.2       493.3       493.3    
        493.3       493.3       493.4       493.4       493.5       493.6       493.7       493.8       493.9       494.1    
        494.2       494.3       494.4       494.6       494.7       494.8       494.9       495.0       495.0       495.0    
        494.9       494.9       494.9       0.000    
   9    0.000       494.9       495.0       495.0       495.0       494.7       494.4       494.0       493.7       493.4    
        493.2       493.1       492.9       492.7       492.6       492.5       492.5       492.4       492.4       492.4    
        492.4       492.4       492.4       492.4       492.4       492.5       492.5       492.5       492.5       492.5    
        492.5       492.6       492.6       492.6       492.6       492.7       492.7       492.8       492.8       492.8    
        492.9       492.9       492.9       493.0       493.1       493.2       493.3       493.4       493.6       493.8    
        493.9       494.1       494.2       494.4       494.6       494.7       494.9       495.0       495.0       495.0    
        495.0       495.0       494.7       0.000    
  10    0.000       495.0       495.0       495.0       494.9       494.6       494.2       493.8       493.4       493.2    
        492.9       492.7       492.6       492.4       492.2       492.1       492.0       492.0       491.9       491.9    
        491.9       491.9       491.9       491.9       491.9       491.9       492.0       492.0       492.0       492.0    
        492.0       492.1       492.1       492.1       492.1       492.2       492.2       492.3       492.3       492.3    
        492.4       492.4       492.4       492.5       492.6       492.7       492.8       493.0       493.2       493.4    
        493.6       493.8       493.9       494.1       494.4       494.6       494.9       495.0       494.9       494.7    
        494.5       494.8       494.2       0.000    
  11    0.000       495.0       495.0       495.0       494.8       494.3       493.9       493.5       493.1       492.8    
        492.6       492.4       492.2       492.0       491.8       491.7       491.6       491.5       491.5       491.4    
        491.4       491.4       491.4       491.4       491.4       491.5       491.5       491.5       491.5       491.5    
        491.6       491.6       491.6       491.6       491.6       491.7       491.7       491.8       491.8       491.8    
        491.9       491.9       491.9       492.0       492.1       492.2       492.4       492.5       492.7       493.0    
        493.2       493.4       493.6       493.9       494.2       494.6       494.9       495.0       494.7       494.1    
        493.6       494.5       493.7       0.000    
  12    0.000       495.0       495.0       495.0       494.7       494.1       493.5       492.9       492.6       492.3    
        492.1       491.9       491.7       491.6       491.4       491.3       491.2       491.1       491.1       491.1    
        491.0       491.0       491.0       491.0       491.0       491.0       491.1       491.1       491.1       491.1    
        491.1       491.1       491.2       491.2       491.2       491.2       491.3       491.3       491.4       491.4    
        491.4       491.4       491.5       491.5       491.6       491.8       491.9       492.1       492.3       492.6    
        492.8       493.1       493.4       493.8       494.2       494.7       495.0       495.0       494.2       493.1    
        492.4       494.1       493.2       0.000    
  13    0.000       494.9       494.9       494.9       494.7       494.0       493.1       492.4       491.9       491.6    
        491.4       491.3       491.2       491.1       491.0       491.0       490.9       490.8       490.8       490.7    
        490.7       490.7       490.7       490.7       490.7       490.7       490.7       490.7       490.7       490.8    
        490.8       490.8       490.8       490.8       490.8       490.9       490.9       490.9       491.0       491.0    
        491.0       491.0       491.1       491.1       491.2       491.3       491.5       491.7       491.9       492.2    
        492.5       492.9       493.3       493.8       494.3       494.8       495.0       494.8       493.6       492.0    
        491.2       493.7       492.7       0.000    
  14    0.000       494.8       494.7       494.8       494.6       493.9       492.9       491.9       491.2       490.8    
        490.6       490.5       490.5       490.6       490.6       490.6       490.6       490.6       490.5       490.5    
        490.5       490.5       490.5       490.5       490.5       490.5       490.5       490.5       490.5       490.5    
        490.5       490.5       490.5       490.5       490.6       490.6       490.6       490.6       490.6       490.6    
        490.7       490.7       490.7       490.8       490.8       491.0       491.1       491.3       491.5       491.9    
        492.4       492.8       493.3       493.8       494.3       494.8       495.0       494.6       492.9       490.8    
        490.1       493.3       492.3       0.000    
  15    0.000       494.8       494.6       494.7       494.5       493.8       492.7       491.6       490.7       490.1    
        489.8       489.6       489.6       489.7       490.0       490.2       490.3       490.3       490.3       490.3    
        490.3       490.3       490.3       490.3       490.3       490.4       490.4       490.4       490.4       490.4    
        490.4       490.4       490.4       490.3       490.3       490.3       490.3       490.3       490.3       490.3    
        490.4       490.4       490.4       490.4       490.5       490.6       490.7       490.9       491.2       491.6    
        492.2       492.7       493.2       493.8       494.3       494.8       495.0       494.4       492.2       489.7    
        489.3       492.9       491.9       0.000    
  16    0.000       494.7       494.3       494.5       494.3       493.7       492.5       491.3       490.2       489.5    
        489.0       488.8       488.6       488.7       489.0       489.4       489.6       489.8       490.0       490.1    
        490.2       490.2       490.3       490.3       490.3       490.3       490.3       490.3       490.3       490.2    
        490.2       490.2       490.1       490.1       490.0       489.9       489.9       489.9       489.9       489.9    
        489.9       489.9       489.9       489.9       490.0       490.1       490.3       490.5       490.8       491.3    
        491.9       492.5       493.0       493.7       494.3       494.8       495.0       494.0       491.4       488.6    
        488.6       492.6       491.5       0.000    
  17    0.000       494.5       494.0       494.2       494.1       493.5       492.3       491.0       489.8       488.8    
        488.2       487.7       487.4       487.3       487.4       488.0       488.4       488.8       489.0       489.3    
        489.5       489.8       490.0       490.5       490.6       490.4       490.2       490.1       490.0       489.8    
        489.7       489.5       489.4       489.2       489.0       488.9       488.9       488.8       488.8       488.9    
        488.9       488.9       488.9       489.0       489.1       489.3       489.5       489.8       490.2       490.8    
        491.5       492.1       492.7       493.4       494.1       494.7       495.0       493.5       490.3       487.1    
        488.0       492.1       491.1       0.000    
  18    0.000       494.4       493.6       493.8       493.7       493.2       492.1       490.7       489.4       488.2    
        487.4       486.8       486.3       486.0       485.9       486.2       486.8       487.3       487.7       488.1    
        488.5       488.9       489.4       490.3       490.8       490.8       490.4       489.9       489.4       489.0    
        488.6       488.3       487.9       487.6       487.3       487.2       487.1       487.2       487.3       487.4    
        487.4       487.5       487.6       487.7       487.9       488.2       488.5       488.9       489.4       490.1    
        490.9       491.6       492.3       493.1       493.9       494.6       494.9       492.9       489.0       485.5    
        487.5       491.6       490.6       0.000    
  19    0.000       494.3       493.3       493.6       493.5       493.0       492.0       490.5       489.1       487.9    
        487.0       486.3       485.7       485.2       484.9       485.0       485.7       486.2       486.6       487.1    
        487.6       488.1       488.8       489.8       490.4       490.6       490.6       490.0       489.2       488.3    
        487.7       487.1       486.5       486.0       485.7       485.6       485.6       485.8       486.0       486.1    
        486.2       486.3       486.5       486.7       487.0       487.3       487.7       488.2       488.7       489.5    
        490.4       491.2       491.9       492.8       493.7       494.5       494.7       492.4       488.2       484.4    
        487.3       491.3       490.3       0.000    
  20    0.000       494.2       493.0       493.3       493.2       492.8       491.8       490.4       488.9       487.7    
        486.7       485.9       485.1       484.5       484.0       483.9       484.5       485.0       485.5       486.0    
        486.5       487.2       488.0       489.1       489.6       489.8       489.7       489.7       489.1       487.9    
        486.7       485.8       485.0       484.3       483.8       483.8       483.9       484.2       484.5       484.7    
        484.9       485.0       485.2       485.5       485.9       486.3       486.8       487.4       488.0       488.9    
        489.8       490.7       491.5       492.5       493.5       494.3       494.4       491.9       487.2       483.2    
        487.0       490.9       490.0       0.000    
  21    0.000       494.1       492.8       493.0       492.9       492.5       491.7       490.2       488.8       487.5    
        486.4       485.5       484.7       483.9       483.3       483.0       483.4       484.0       484.5       485.0    
        485.6       486.3       487.2       488.2       488.7       488.7       488.3       488.2       488.3       487.7    
        486.2       484.8       483.7       482.8       482.2       482.2       482.4       482.8       483.1       483.4    
        483.6       483.8       484.1       484.4       484.9       485.4       486.0       486.6       487.3       488.2    
        489.2       490.2       491.1       492.2       493.2       494.1       494.1       491.4       486.4       482.3    
        486.8       490.6       489.7       0.000    
  22    0.000       494.0       492.5       492.7       492.7       492.3       491.5       490.1       488.6       487.3    
        486.2       485.3       484.4       483.6       482.8       482.4       482.6       483.2       483.7       484.2    
        484.8       485.4       486.4       487.5       488.0       487.8       487.0       486.4       486.9       486.5    
        485.7       484.3       482.9       481.7       480.9       480.9       481.2       481.6       481.9       482.3    
        482.5       482.8       483.1       483.5       484.0       484.6       485.3       485.9       486.6       487.6    
        488.7       489.8       490.8       491.9       493.0       493.9       493.8       490.9       485.7       481.4    
        486.7       490.4       489.4       0.000    
  23    0.000       493.9       492.4       492.5       492.5       492.1       491.3       490.0       488.5       487.2    
        486.1       485.1       484.2       483.3       482.4       481.9       481.9       482.5       483.0       483.5    
        484.0       484.7       485.7       486.8       487.3       487.0       486.1       485.1       485.0       485.9    
        484.4       483.5       482.3       480.9       479.9       479.9       480.2       480.5       480.9       481.3    
        481.6       481.9       482.2       482.6       483.2       483.9       484.6       485.2       486.0       487.0    
        488.2       489.4       490.4       491.6       492.8       493.6       493.5       490.5       485.0       480.7    
        486.5       490.1       489.2       0.000    
  24    0.000       493.8       492.2       492.2       492.2       491.9       491.2       489.8       488.4       487.0    
        485.9       485.0       484.0       483.0       482.1       481.4       481.3       481.8       482.3       482.7    
        483.3       483.9       484.9       486.1       486.6       486.2       485.2       484.3       483.7       485.4    
        484.0       482.0       481.2       480.1       479.0       478.9       479.2       479.6       480.0       480.4    
        480.7       481.0       481.3       481.8       482.4       483.1       483.8       484.5       485.3       486.4    
        487.7       488.9       490.1       491.3       492.5       493.3       493.1       490.0       484.3       480.0    
        486.4       489.9       489.0       0.000    
  25    0.000       493.7       492.0       491.9       492.0       491.7       491.0       489.7       488.3       486.9    
        485.8       484.9       483.9       482.8       481.8       481.0       480.7       481.1       481.6       482.0    
        482.6       483.1       484.2       485.5       485.9       485.5       484.4       483.7       483.3       482.3    
        485.1       481.3       479.6       478.9       478.2       478.1       478.4       478.7       479.1       479.5    
        479.8       480.1       480.4       480.9       481.6       482.3       483.0       483.7       484.5       485.8    
        487.2       488.5       489.7       491.0       492.2       493.0       492.8       489.5       483.6       479.2    
        486.2       489.7       488.8       0.000    
  26    0.000       493.6       491.8       491.6       491.7       491.4       490.8       489.6       488.1       486.8    
        485.7       484.7       483.7       482.7       481.6       480.7       480.2       480.5       480.9       481.3    
        481.8       482.4       483.6       484.9       485.2       484.6       483.7       482.9       482.0       480.3    
        481.4       483.3       478.7       477.4       477.0       477.3       477.6       477.9       478.3       478.7    
        479.0       479.3       479.6       480.1       480.8       481.5       482.2       482.9       483.8       485.1    
        486.7       488.0       489.3       490.7       491.9       492.7       492.4       489.0       482.9       478.5    
        486.1       489.4       488.6       0.000    
  27    0.000       493.5       491.6       491.3       491.4       491.2       490.6       489.4       488.0       486.7    
        485.6       484.6       483.6       482.5       481.4       480.4       479.8       479.9       480.3       480.7    
        481.1       481.7       483.1       484.3       484.6       483.9       483.1       482.4       480.7       479.4    
        474.6       477.7       480.3       476.5       475.8       476.3       476.8       477.2       477.6       477.9    
        478.2       478.5       478.8       479.3       479.9       480.6       481.4       482.1       482.9       484.4    
        486.1       487.6       488.9       490.3       491.5       492.3       492.0       488.5       482.2       477.7    
        485.9       489.2       488.3       0.000    
  28    0.000       493.4       491.3       491.0       491.1       490.9       490.3       489.3       487.9       486.6    
        485.5       484.5       483.5       482.5       481.3       480.2       479.5       479.4       479.7       480.1    
        480.4       481.2       482.7       483.9       484.1       483.5       482.8       482.0       480.3       479.2    
        475.2       469.5       473.9       477.0       475.0       475.3       475.9       476.5       476.9       477.2    
        477.5       477.7       478.0       478.5       479.1       479.8       480.5       481.1       482.1       483.7    
        485.5       487.0       488.4       489.8       491.0       491.9       491.5       487.9       481.5       476.9    
        485.8       488.9       488.1       0.000    
  29    0.000       493.3       491.1       490.6       490.8       490.6       490.1       489.1       487.7       486.4    
        485.4       484.4       483.5       482.4       481.2       480.0       479.2       478.9       479.2       479.5    
        479.8       480.9       482.5       483.6       483.7       483.3       482.7       481.7       480.2       479.3    
        477.2       468.9       468.0       472.7       474.6       474.6       475.1       475.7       476.1       476.5    
        476.8       477.0       477.3       477.7       478.3       478.8       479.5       480.2       481.2       483.0    
        484.9       486.5       487.9       489.4       490.6       491.5       491.0       487.2       480.7       476.2    
        485.6       488.7       487.9       0.000    
  30    0.000       493.2       490.9       490.3       490.4       490.3       489.8       488.9       487.6       486.3    
        485.3       484.4       483.4       482.4       481.2       480.0       479.0       478.5       478.8       479.0    
        479.4       480.8       482.5       483.5       483.6       483.2       482.6       481.5       480.4       479.6    
        478.7       477.3       473.3       471.2       473.5       474.3       474.5       474.9       475.4       475.8    
        476.1       476.3       476.6       476.9       477.4       477.9       478.5       479.2       480.3       482.2    
        484.2       485.9       487.4       488.8       490.1       491.0       490.5       486.6       479.9       475.4    
        485.4       488.4       487.6       0.000    
  31    0.000       493.1       490.7       489.9       490.1       490.0       489.6       488.7       487.4       486.2    
        485.2       484.3       483.4       482.3       481.2       480.0       478.8       478.3       478.4       478.6    
        479.1       480.9       482.7       483.5       483.6       483.2       482.4       481.5       480.6       479.8    
        479.1       478.9       477.5       470.2       471.9       474.2       474.3       474.5       474.8       475.1    
        475.4       475.6       475.9       476.2       476.6       477.0       477.5       478.2       479.4       481.5    
        483.6       485.3       486.8       488.3       489.6       490.6       490.0       486.0       479.2       474.7    
        485.2       488.1       487.4       0.000    
  32    0.000       493.0       490.5       489.5       489.7       489.7       489.3       488.5       487.3       486.1    
        485.1       484.2       483.3       482.3       481.3       480.1       478.8       478.1       478.1       478.3    
        479.1       481.2       482.9       483.6       483.7       483.3       482.5       481.7       480.7       479.4    
        478.1       476.6       473.5       469.1       469.2       473.6       474.1       474.2       474.4       474.6    
        474.8       475.0       475.2       475.5       475.7       476.0       476.4       477.2       478.5       480.7    
        482.9       484.7       486.2       487.7       489.1       490.1       489.5       485.3       478.4       474.0    
        485.0       487.9       487.2       0.000    
  33    0.000       492.8       490.3       489.2       489.4       489.3       489.0       488.3       487.1       485.9    
        485.0       484.1       483.3       482.3       481.3       480.2       478.8       478.0       477.9       478.0    
        479.3       481.8       483.3       483.8       483.8       483.3       482.7       482.0       481.0       479.7    
        478.2       476.2       473.3       469.9       468.3       471.7       473.8       474.1       474.2       474.3    
        474.4       474.5       474.6       474.8       474.9       475.1       475.4       476.2       477.6       479.9    
        482.2       484.0       485.5       487.1       488.6       489.6       488.9       484.6       477.7       473.4    
        484.8       487.6       486.9       0.000    
  34    0.000       492.7       490.0       488.8       489.0       489.0       488.7       488.0       486.9       485.8    
        484.9       484.1       483.2       482.4       481.4       480.3       479.0       477.9       477.7       477.9    
        479.9       482.5       483.7       484.0       483.8       483.4       482.9       482.3       481.4       480.1    
        478.6       476.4       473.8       470.7       468.8       469.4       473.2       473.8       474.0       474.1    
        474.2       474.2       474.2       474.2       474.1       474.1       474.4       475.2       476.7       479.1    
        481.4       483.3       484.9       486.6       488.1       489.1       488.4       483.9       476.9       472.8    
        484.6       487.4       486.7       0.000    
  35    0.000       492.6       489.8       488.4       488.6       488.6       488.4       487.8       486.8       485.7    
        484.8       484.0       483.2       482.4       481.5       480.5       479.2       478.0       477.6       478.2    
        481.2       483.4       483.9       484.0       483.7       483.2       482.6       481.9       480.8       479.5    
        477.8       475.9       473.7       471.2       469.4       469.0       471.9       473.4       473.8       473.9    
        473.9       473.9       473.8       473.6       473.4       473.2       473.3       474.3       475.9       478.3    
        480.6       482.5       484.2       486.0       487.5       488.5       487.8       483.2       476.1       472.2    
        484.3       487.1       486.4       0.000    
  36    0.000       492.4       489.5       487.9       488.1       488.2       488.0       487.5       486.6       485.5    
        484.6       483.9       483.2       482.4       481.6       480.7       479.6       478.1       477.5       481.4    
        483.4       484.0       484.0       483.8       483.3       482.5       481.7       480.7       479.4       477.7    
        475.9       473.8       471.7       469.8       468.6       469.4       468.9       472.5       473.4       473.6    
        473.6       473.6       473.4       473.0       472.5       472.1       472.2       473.3       474.9       477.3    
        479.7       481.7       483.4       485.2       486.8       487.9       487.0       482.4       475.2       471.5    
        484.0       486.7       486.1       0.000    
  37    0.000       492.2       489.2       487.3       487.4       487.6       487.5       487.1       486.3       485.3    
        484.5       483.8       483.1       482.4       481.8       481.0       480.1       478.6       477.9       483.7    
        484.0       484.0       483.7       483.2       482.5       481.6       480.6       479.5       478.0       476.2    
        474.2       472.1       470.1       468.0       466.2       466.1       469.7       470.0       472.6       473.2    
        473.3       473.1       472.8       472.2       471.4       470.8       471.1       472.1       473.8       476.2    
        478.7       480.7       482.5       484.3       485.9       487.0       486.1       481.3       474.1       470.8    
        483.7       486.3       485.8       0.000    
  38    0.000       491.9       488.7       486.6       486.6       486.9       486.9       486.6       486.0       485.1    
        484.3       483.7       483.1       482.5       481.9       481.4       480.7       479.7       479.0       482.6    
        483.8       483.7       483.2       482.5       481.6       480.5       479.4       478.2       476.6       474.8    
        472.8       470.9       469.0       467.1       465.2       463.9       463.5       466.6       470.6       472.6    
        472.9       472.6       472.0       471.0       469.9       469.3       469.9       471.0       472.6       475.0    
        477.5       479.5       481.3       483.1       484.8       485.9       485.0       480.0       472.7       470.0    
        483.2       485.8       485.3       0.000    
  39    0.000       491.6       488.3       485.9       485.7       486.1       486.2       486.1       485.6       484.8    
        484.1       483.6       483.0       482.5       482.1       481.7       481.4       481.2       480.7       482.6    
        483.6       483.4       482.7       481.8       480.7       479.4       478.2       476.9       475.2       473.4    
        471.5       469.7       467.9       466.1       464.4       463.1       462.4       462.4       467.0       471.4    
        472.8       472.6       471.6       469.8       468.4       468.0       468.7       469.9       471.5       473.8    
        476.2       478.2       480.0       481.9       483.6       484.7       483.7       478.6       471.3       469.2    
        482.8       485.3       484.9       0.000    
  40    0.000       491.3       487.7       485.0       484.7       485.1       485.4       485.4       485.1       484.4    
        483.9       483.4       482.9       482.5       482.2       482.1       482.2       482.4       482.4       483.1    
        483.5       483.0       482.1       480.9       479.5       478.0       476.6       475.2       473.5       471.7    
        469.9       468.1       466.4       464.6       462.9       461.6       461.0       461.1       462.8       465.8    
        471.2       473.3       472.1       468.9       467.1       467.0       467.7       468.8       470.3       472.5    
        474.8       476.7       478.5       480.4       482.1       483.2       482.1       477.0       469.7       468.3    
        482.2       484.7       484.3       0.000    
  41    0.000       490.9       487.1       484.1       483.5       484.0       484.5       484.7       484.5       484.0    
        483.6       483.2       482.8       482.6       482.4       482.4       482.7       483.0       483.3       483.5    
        483.3       482.5       481.2       479.6       477.8       476.2       474.7       473.3       471.7       469.9    
        468.2       466.6       464.9       463.3       461.5       459.9       458.9       458.5       458.9       461.6    
        464.6       466.7       473.2       468.6       466.2       466.4       467.0       468.0       469.3       471.3    
        473.4       475.2       477.0       478.9       480.5       481.5       480.5       475.2       468.0       467.5    
        481.6       484.0       483.7       0.000    
  42    0.000       490.4       486.5       483.2       482.3       482.9       483.5       483.9       483.9       483.6    
        483.2       482.9       482.7       482.5       482.5       482.7       482.9       483.2       483.4       483.5    
        483.0       481.7       480.2       478.4       476.5       474.8       473.3       472.0       470.4       468.8    
        467.2       465.6       464.1       462.5       460.7       459.0       457.6       456.6       456.1       456.2    
        457.8       457.2       465.8       465.5       465.7       466.0       466.6       467.4       468.5       470.3    
        472.2       473.9       475.5       477.3       478.9       479.8       478.8       473.5       466.4       466.8    
        481.0       483.4       483.1       0.000    
  43    0.000       490.0       485.9       482.3       481.2       481.8       482.6       483.1       483.3       483.1    
        482.9       482.7       482.5       482.5       482.6       482.8       483.0       483.2       483.4       483.4    
        482.8       481.5       479.8       477.8       475.9       474.2       472.7       471.4       469.8       468.2    
        466.7       465.2       463.8       462.2       460.5       458.8       457.4       456.4       455.7       455.4    
        455.6       458.9       461.5       464.8       465.3       465.7       466.2       466.8       467.8       469.4    
        471.1       472.6       474.1       475.8       477.3       478.2       477.1       471.9       464.9       466.1    
        480.4       482.7       482.6       0.000    
  44    0.000       489.5       485.1       481.4       479.9       480.5       481.5       482.2       482.5       482.5    
        482.4       482.3       482.3       482.4       482.5       482.7       482.9       483.1       483.2       483.1    
        482.5       481.2       479.5       477.6       475.7       474.0       472.6       471.3       469.8       468.3    
        466.8       465.4       464.0       462.5       460.9       459.2       457.9       457.1       456.9       457.0    
        457.1       457.5       458.7       461.6       463.8       464.8       465.5       466.1       467.0       468.4    
        469.9       471.2       472.6       474.1       475.5       476.2       475.2       470.1       463.3       465.4    
        479.6       482.0       481.9       0.000    
  45    0.000       488.9       484.3       480.2       478.3       478.9       480.0       480.9       481.5       481.8    
        481.8       481.8       481.9       482.1       482.3       482.5       482.7       482.8       482.8       482.6    
        482.1       480.8       479.3       477.4       475.7       474.1       472.7       471.5       470.0       468.6    
        467.2       465.8       464.5       463.2       461.9       460.6       459.6       458.8       458.2       458.0    
        458.1       458.5       459.2       460.7       462.0       463.2       464.3       465.1       465.9       467.1    
        468.4       469.6       470.7       472.0       473.2       473.8       472.8       468.0       461.5       464.6    
        478.6       481.1       481.2       0.000    
  46    0.000       488.1       483.1       478.8       476.5       476.9       478.2       479.3       480.2       480.7    
        480.9       481.1       481.3       481.6       481.8       482.0       482.1       482.2       482.1       481.9    
        481.3       480.2       478.8       477.2       475.6       474.1       472.8       471.7       470.4       469.1    
        468.0       466.9       465.8       464.7       463.5       462.2       461.1       460.1       459.4       459.1    
        459.0       459.2       459.5       460.2       460.9       461.7       462.6       463.5       464.5       465.5    
        466.6       467.5       468.5       469.5       470.4       470.8       469.9       465.5       459.4       463.6    
        477.3       480.1       480.2       0.000    
  47    0.000       487.1       481.8       477.2       474.5       474.6       476.0       477.4       478.5       479.2    
        479.7       480.0       480.4       480.7       481.0       481.2       481.3       481.3       481.2       480.9    
        480.4       479.4       478.1       476.6       475.2       474.0       472.9       472.0       471.0       469.9    
        468.9       467.9       467.0       465.9       464.7       463.4       462.2       461.1       460.3       459.8    
        459.5       459.4       459.4       459.6       459.9       460.3       460.9       461.6       462.4       463.5    
        464.5       465.2       465.9       466.7       467.3       467.4       466.6       462.9       457.4       462.6    
        475.9       478.8       479.2       0.000    
  48    0.000       486.0       480.5       475.6       472.6       472.3       473.7       475.3       476.7       477.6    
        478.3       478.8       479.2       479.7       480.0       480.2       480.3       480.3       480.1       479.8    
        479.2       478.3       477.1       475.8       474.6       473.6       472.7       472.0       471.1       470.1    
        469.2       468.3       467.4       466.4       465.2       463.9       462.7       461.5       460.6       459.9    
        459.5       459.2       459.0       458.9       458.9       459.0       459.4       459.8       460.4       461.3    
        462.1       462.8       463.3       463.8       464.1       464.0       463.3       460.4       455.5       461.7    
        474.4       477.6       478.1       0.000    
  49    0.000       484.7       478.9       473.8       470.6       469.8       471.2       473.0       474.5       475.7    
        476.6       477.2       477.7       478.2       478.6       478.9       478.9       478.8       478.6       478.2    
        477.7       476.8       475.7       474.6       473.5       472.6       471.9       471.2       470.4       469.6    
        468.7       467.9       467.0       466.1       465.0       463.7       462.5       461.3       460.3       459.6    
        459.0       458.7       458.3       457.9       457.7       457.6       457.7       457.9       458.3       458.8    
        459.5       460.1       460.4       460.7       460.9       460.6       459.8       457.8       453.8       460.6    
        472.8       476.3       476.9       0.000    
  50    0.000       483.0       476.8       471.6       468.1       466.9       468.0       469.9       471.6       473.0    
        474.1       474.9       475.5       476.1       476.5       476.8       476.8       476.6       476.3       475.9    
        475.3       474.4       473.4       472.4       471.4       470.6       469.9       469.3       468.5       467.8    
        467.1       466.3       465.6       464.7       463.7       462.5       461.3       460.2       459.2       458.5    
        457.9       457.5       457.0       456.5       456.0       455.8       455.7       455.7       455.9       456.1    
        456.5       456.9       457.1       457.2       457.1       456.7       456.0       454.9       452.0       459.3    
        470.7       474.5       475.4       0.000    
  51    0.000       481.1       474.8       469.5       465.9       464.3       465.1       466.9       468.8       470.3    
        471.5       472.4       473.1       473.7       474.2       474.3       474.2       473.9       473.6       473.2    
        472.6       471.7       470.7       469.6       468.7       467.9       467.3       466.7       466.0       465.4    
        464.7       464.0       463.4       462.6       461.7       460.6       459.6       458.6       457.7       457.1    
        456.5       456.1       455.6       455.0       454.5       454.1       454.0       453.9       454.0       454.1    
        454.2       454.4       454.6       454.5       454.3       453.9       453.2       452.5       450.9       458.2    
        468.7       472.9       473.9       0.000    
  52    0.000       479.5       473.0       467.7       464.2       462.4       462.9       464.6       466.4       468.0    
        469.3       470.1       470.9       471.5       471.8       471.9       471.7       471.5       471.1       470.6    
        470.0       469.0       468.0       467.0       466.1       465.4       464.8       464.2       463.6       463.0    
        462.4       461.8       461.2       460.5       459.7       458.8       457.9       457.1       456.3       455.7    
        455.3       454.9       454.5       453.9       453.3       453.0       452.8       452.7       452.7       452.7    
        452.8       452.9       453.0       452.9       452.6       452.2       451.6       451.0       450.3       457.3    
        467.1       471.5       472.7       0.000    
  53    0.000       478.2       471.6       466.3       462.8       461.0       461.2       462.7       464.5       466.1    
        467.4       468.2       469.0       469.5       469.8       469.8       469.6       469.3       468.9       468.3    
        467.6       466.6       465.6       464.7       463.8       463.1       462.6       462.1       461.5       461.0    
        460.4       459.9       459.4       458.8       458.1       457.3       456.5       455.8       455.2       454.7    
        454.3       454.0       453.6       453.1       452.5       452.2       452.0       451.9       451.9       451.9    
        451.9       451.9       452.0       451.9       451.6       451.2       450.8       450.4       450.1       456.5    
        465.9       470.4       471.8       0.000    
  54    0.000       476.9       470.3       465.1       461.7       459.8       459.7       461.2       462.9       464.4    
        465.6       466.5       467.1       467.6       467.8       467.8       467.5       467.2       466.7       466.2    
        465.4       464.4       463.4       462.5       461.7       461.1       460.6       460.2       459.7       459.2    
        458.7       458.2       457.8       457.2       456.6       456.0       455.3       454.7       454.2       453.8    
        453.5       453.2       452.9       452.5       452.0       451.6       451.4       451.3       451.3       451.3    
        451.3       451.3       451.3       451.2       451.0       450.7       450.4       450.1       450.0       455.9    
        464.8       469.5       471.0       0.000    
  55    0.000       475.6       469.0       463.9       460.5       458.6       458.4       459.6       461.2       462.7    
        463.9       464.6       465.2       465.6       465.8       465.7       465.4       465.0       464.5       463.9    
        463.1       462.1       461.2       460.4       459.7       459.1       458.7       458.3       457.9       457.4    
        457.0       456.6       456.2       455.8       455.3       454.8       454.2       453.8       453.3       453.0    
        452.7       452.5       452.3       451.9       451.5       451.2       450.9       450.8       450.8       450.8    
        450.8       450.8       450.8       450.7       450.6       450.4       450.2       450.0       450.0       455.3    
        463.7       468.6       470.3       0.000    
  56    0.000       474.0       467.5       462.5       459.3       457.4       456.9       458.0       459.4       460.7    
        461.8       462.5       463.0       463.3       463.4       463.2       462.9       462.4       461.9       461.2    
        460.4       459.5       458.7       458.0       457.4       457.0       456.6       456.3       456.0       455.6    
        455.3       455.0       454.7       454.3       453.9       453.5       453.1       452.7       452.4       452.2    
        452.0       451.8       451.6       451.4       451.1       450.8       450.6       450.5       450.4       450.4    
        450.4       450.4       450.4       450.3       450.2       450.1       450.0       450.0       450.0       454.7    
        462.5       467.7       469.4       0.000    
  57    0.000       472.1       465.7       460.9       457.9       456.1       455.4       456.2       457.4       458.5    
        459.4       460.0       460.4       460.6       460.6       460.3       459.9       459.4       458.8       458.1    
        457.4       456.6       456.0       455.5       455.1       454.7       454.5       454.2       454.0       453.7    
        453.5       453.3       453.0       452.8       452.5       452.2       452.0       451.7       451.5       451.3    
        451.2       451.1       451.0       450.8       450.6       450.4       450.3       450.2       450.2       450.1    
        450.1       450.1       450.1       450.1       450.1       450.0       450.0       450.0       450.0       453.9    
        461.2       466.7       468.5       0.000    
  58    0.000       469.8       463.6       459.2       456.3       454.7       453.9       454.3       455.2       456.1    
        456.8       457.2       457.6       457.7       457.5       457.1       456.6       456.0       455.4       454.8    
        454.3       453.8       453.4       453.1       452.8       452.6       452.4       452.3       452.1       451.9    
        451.8       451.7       451.5       451.4       451.2       451.0       450.9       450.7       450.6       450.5    
        450.4       450.3       450.2       450.1       450.0       449.9       449.8       449.8       449.8       449.9    
        450.0       450.0       450.0       450.0       450.0       450.0       450.0       450.0       450.0       453.1    
        459.9       465.5       467.5       0.000    
  59    0.000       467.2       461.3       457.3       454.8       453.3       452.5       452.6       453.2       453.8    
        454.2       454.5       454.7       454.6       454.3       453.8       453.2       452.7       452.3       452.0    
        451.7       451.5       451.3       451.1       450.9       450.8       450.7       450.7       450.6       450.5    
        450.4       450.3       450.2       450.1       450.0       449.9       449.8       449.6       449.5       449.4    
        449.3       449.3       449.2       449.1       448.9       448.7       448.5       448.4       448.1       448.2    
        448.9       449.6       449.8       449.9       450.0       450.0       450.0       450.0       450.0       452.3    
        458.7       464.4       466.4       0.000    
  60    0.000       464.7       459.1       455.3       453.2       452.0       451.3       451.2       451.5       451.8    
        452.0       452.0       452.0       451.8       451.4       451.0       450.7       450.5       450.3       450.2    
        450.2       450.1       450.0       449.9       449.8       449.7       449.6       449.5       449.4       449.3    
        449.1       449.0       448.9       448.7       448.5       448.2       448.0       447.7       447.4       447.1    
        446.8       446.6       446.3       445.8       445.1       444.2       443.0       441.6       441.6       443.8    
        446.6       448.3       449.2       449.6       449.9       450.0       450.0       450.0       450.0       451.7    
        457.7       463.2       465.2       0.000    
  61    0.000       462.4       457.4       454.0       452.0       450.9       450.4       450.3       450.4       450.4    
        450.4       450.3       450.1       449.9       449.7       449.5       449.3       449.0       448.7       448.5    
        448.4       448.1       447.2       445.9       445.0       444.3       443.8       443.4       443.0       442.6    
        442.2       441.8       441.4       440.9       440.4       439.8       439.1       438.5       437.8       437.2    
        436.7       436.2       435.7       434.9       433.8       432.7       431.8       431.6       433.7       440.2    
        445.1       447.5       448.8       449.5       449.9       450.0       450.1       450.1       450.3       451.5    
        456.8       462.0       464.0       0.000    
  62    0.000       460.3       456.0       453.1       451.4       450.5       450.1       450.0       449.9       449.8    
        449.5       449.1       448.4       447.3       446.0       444.8       443.8       443.1       442.6       442.3    
        442.0       441.8       441.4       440.9       440.2       439.7       439.2       438.7       438.3       438.0    
        437.7       437.5       437.4       437.3       437.2       437.1       437.0       437.0       436.9       436.9    
        436.9       436.8       436.8       436.9       437.0       437.3       437.8       438.5       439.2       444.0    
        448.1       449.3       449.8       450.0       450.2       450.6       451.2       452.0       451.8       451.8    
        456.2       460.9       462.9       0.000    
  63    0.000       458.3       454.9       452.6       451.2       450.5       450.2       450.1       450.0       450.0    
        449.8       449.4       448.7       447.7       446.6       445.8       445.2       445.0       445.0       445.1    
        445.7       446.5       447.0       447.1       447.0       446.9       446.8       446.8       446.7       446.7    
        446.7       446.7       446.8       446.9       447.0       447.3       447.5       447.9       448.2       448.4    
        448.7       448.9       449.1       449.5       449.8       450.1       450.3       450.4       450.4       450.4    
        450.4       450.7       451.2       451.9       453.0       454.6       456.6       458.2       454.6       452.9    
        456.0       460.1       461.9       0.000    
  64    0.000       457.4       455.0       453.3       452.2       451.6       451.2       450.9       450.8       450.7    
        450.6       450.6       450.5       450.6       451.1       451.6       452.1       452.6       453.0       453.3    
        453.6       453.7       453.8       453.7       454.0       454.3       454.7       455.0       455.4       455.6    
        455.8       455.9       456.0       456.0       456.0       456.0       456.0       456.0       456.0       456.0    
        456.0       456.0       456.0       456.0       456.0       456.0       456.1       456.2       456.4       456.8    
        457.5       458.3       459.3       460.8       462.7       465.0       467.3       465.6       459.6       455.2    
        456.6       459.6       461.1       0.000    
  65    0.000       459.5       458.0       456.7       455.8       455.2       454.8       454.5       454.3       454.3    
        454.2       454.2       454.2       454.3       454.4       454.6       454.9       455.2       455.5       455.7    
        456.1       456.4       456.7       457.0       457.3       457.5       457.7       457.8       458.0       458.2    
        458.4       458.6       458.8       459.1       459.3       459.7       460.0       460.3       460.6       460.9    
        461.1       461.3       461.6       462.0       462.5       463.1       463.7       464.3       465.0       466.5    
        469.0       470.5       471.7       472.9       473.8       474.8       475.3       472.6       466.8       459.5    
        458.2       459.7       460.7       0.000    
  66    0.000       0.000       0.000       0.000       0.000       0.000       0.000       0.000       0.000       0.000    
        0.000       0.000       0.000       0.000       0.000       0.000       0.000       0.000       0.000       0.000    
        0.000       0.000       0.000       0.000       0.000       0.000       0.000       0.000       0.000       0.000    
        0.000       0.000       0.000       0.000       0.000       0.000       0.000       0.000       0.000       0.000    
        0.000       0.000       0.000       0.000       0.000       0.000       0.000       0.000       0.000       0.000    
        0.000       0.000       0.000       0.000       0.000       0.000       0.000       0.000       0.000       0.000    
        0.000       0.000       0.000       0.000    



             MODEL LAYER BOTTOM EL. FOR LAYER   2
 READING ON UNIT   14 WITH FORMAT: (10F13.0)           

            1           2           3           4           5           6           7           8           9          10
           11          12          13          14          15          16          17          18          19          20
           21          22          23          24          25          26          27          28          29          30
           31          32          33          34          35          36          37          38          39          40
           41          42          43          44          45          46          47          48          49          50
           51          52          53          54          55          56          57          58          59          60
           61          62          63          64
 ........................................................................................................................
   1    0.000       0.000       0.000       0.000       0.000       0.000       0.000       0.000       0.000       0.000    
        0.000       0.000       0.000       0.000       0.000       0.000       0.000       0.000       0.000       0.000    
        0.000       0.000       0.000       0.000       0.000       0.000       0.000       0.000       0.000       0.000    
        0.000       0.000       0.000       0.000       0.000       0.000       0.000       0.000       0.000       0.000    
        0.000       0.000       0.000       0.000       0.000       0.000       0.000       0.000       0.000       0.000    
        0.000       0.000       0.000       0.000       0.000       0.000       0.000       0.000       0.000       0.000    
        0.000       0.000       0.000       0.000    
   2    0.000       474.4       474.0       473.9       473.8       473.9       473.9       473.9       474.0       474.3    
        474.5       474.6       474.8       475.0       475.1       475.2       475.3       475.4       475.5       475.5    
        475.6       475.7       475.7       475.8       475.8       475.8       475.9       475.9       475.9       476.0    
        476.0       476.0       476.1       476.1       476.1       476.2       476.2       476.3       476.3       476.4    
        476.4       476.4       476.5       476.5       476.6       476.7       476.8       476.9       477.1       477.2    
        477.4       477.5       477.7       477.9       478.0       478.3       478.5       478.8       479.1       479.3    
        479.5       479.5       479.5       0.000    
   3    0.000       475.9       475.7       475.6       475.5       475.5       475.9       476.3       476.6       476.9    
        477.1       477.3       477.5       477.7       477.9       478.1       478.2       478.3       478.3       478.4    
        478.5       478.6       478.6       478.7       478.7       478.7       478.8       478.8       478.8       478.9    
        478.9       478.9       479.0       479.0       479.0       479.1       479.1       479.2       479.2       479.3    
        479.3       479.3       479.4       479.4       479.5       479.6       479.7       479.8       479.9       480.1    
        480.3       480.4       480.5       480.7       480.9       481.1       481.4       481.6       481.9       482.1    
        482.1       481.9       481.6       0.000    
   4    0.000       477.0       477.0       477.0       477.0       477.5       477.9       478.3       478.6       478.9    
        479.1       479.3       479.5       479.7       479.8       480.0       480.1       480.3       480.3       480.4    
        480.5       480.5       480.6       480.6       480.7       480.7       480.8       480.8       480.8       480.8    
        480.9       480.9       480.9       481.0       481.0       481.1       481.1       481.2       481.2       481.2    
        481.3       481.3       481.3       481.4       481.5       481.6       481.7       481.8       481.9       482.1    
        482.3       482.4       482.5       482.7       482.9       483.1       483.4       483.6       483.9       484.0    
        484.0       483.6       483.4       0.000    
   5    0.000       478.6       478.3       478.3       478.6       479.0       479.4       479.7       480.0       480.2    
        480.4       480.5       480.7       480.9       481.0       481.2       481.3       481.4       481.5       481.6    
        481.6       481.7       481.8       481.8       481.9       481.9       481.9       481.9       482.0       482.0    
        482.0       482.1       482.1       482.1       482.2       482.2       482.2       482.3       482.3       482.4    
        482.4       482.4       482.5       482.5       482.6       482.7       482.8       482.9       483.0       483.2    
        483.4       483.5       483.7       483.8       484.0       484.2       484.5       484.7       485.0       485.1    
        485.0       484.7       484.7       0.000    
   6    0.000       479.9       479.6       479.5       479.7       480.1       480.4       480.7       480.8       481.0    
        481.1       481.2       481.4       481.5       481.7       481.8       481.9       482.0       482.1       482.2    
        482.2       482.3       482.4       482.4       482.5       482.5       482.5       482.5       482.6       482.6    
        482.6       482.7       482.7       482.7       482.8       482.8       482.8       482.9       482.9       483.0    
        483.0       483.0       483.0       483.1       483.2       483.3       483.4       483.5       483.6       483.8    
        483.9       484.1       484.2       484.4       484.6       484.8       485.0       485.3       485.5       485.6    
        485.5       485.4       485.4       0.000    
   7    0.000       480.9       480.5       480.4       480.5       480.8       481.0       481.2       481.3       481.4    
        481.5       481.6       481.7       481.8       481.9       482.0       482.1       482.2       482.2       482.3    
        482.4       482.4       482.5       482.5       482.6       482.6       482.7       482.7       482.7       482.7    
        482.8       482.8       482.8       482.9       482.9       483.0       483.0       483.1       483.1       483.2    
        483.2       483.2       483.3       483.3       483.4       483.5       483.6       483.7       483.8       484.0    
        484.2       484.3       484.4       484.6       484.8       485.0       485.2       485.4       485.6       485.7    
        485.6       485.7       485.6       0.000    
   8    0.000       481.6       481.1       481.0       481.1       481.2       481.4       481.5       481.6       481.7    
        481.7       481.8       481.8       481.9       482.0       482.0       482.1       482.1       482.2       482.2    
        482.3       482.3       482.4       482.4       482.5       482.5       482.5       482.6       482.6       482.6    
        482.6       482.7       482.7       482.7       482.8       482.8       482.9       482.9       483.0       483.0    
        483.0       483.1       483.1       483.2       483.3       483.4       483.5       483.6       483.8       484.0    
        484.1       484.3       484.4       484.6       484.8       485.0       485.2       485.4       485.5       485.5    
        485.5       485.7       485.5       0.000    
   9    0.000       482.1       481.6       481.4       481.5       481.5       481.6       481.6       481.7       481.7    
        481.7       481.7       481.8       481.8       481.8       481.9       481.9       482.0       482.0       482.0    
        482.1       482.1       482.2       482.2       482.2       482.3       482.3       482.3       482.3       482.4    
        482.4       482.4       482.4       482.5       482.5       482.6       482.6       482.6       482.7       482.7    
        482.8       482.8       482.8       482.9       483.0       483.1       483.2       483.4       483.5       483.7    
        483.9       484.1       484.2       484.4       484.6       484.9       485.1       485.2       485.3       485.3    
        485.3       485.5       485.1       0.000    
  10    0.000       482.5       481.9       481.7       481.7       481.7       481.6       481.6       481.6       481.6    
        481.6       481.6       481.6       481.6       481.6       481.7       481.7       481.7       481.7       481.8    
        481.8       481.8       481.9       481.9       481.9       482.0       482.0       482.0       482.0       482.0    
        482.1       482.1       482.1       482.1       482.2       482.2       482.3       482.3       482.4       482.4    
        482.4       482.5       482.5       482.6       482.6       482.7       482.9       483.0       483.2       483.4    
        483.6       483.8       484.0       484.2       484.4       484.6       484.9       485.1       485.0       484.8    
        484.8       485.1       484.5       0.000    
  11    0.000       482.7       482.1       481.9       481.7       481.6       481.5       481.5       481.4       481.4    
        481.4       481.4       481.4       481.4       481.4       481.4       481.4       481.5       481.5       481.5    
        481.5       481.5       481.6       481.6       481.6       481.6       481.7       481.7       481.7       481.7    
        481.7       481.8       481.8       481.8       481.8       481.9       481.9       482.0       482.0       482.0    
        482.1       482.1       482.1       482.2       482.3       482.4       482.5       482.7       482.8       483.1    
        483.3       483.5       483.7       483.9       484.2       484.5       484.8       484.9       484.6       484.0    
        483.9       484.7       483.9       0.000    
  12    0.000       482.9       482.3       482.1       481.9       481.6       481.3       481.1       481.1       481.1    
        481.1       481.1       481.1       481.1       481.1       481.1       481.2       481.2       481.2       481.2    
        481.2       481.3       481.3       481.3       481.3       481.3       481.4       481.4       481.4       481.4    
        481.4       481.5       481.5       481.5       481.5       481.6       481.6       481.6       481.7       481.7    
        481.7       481.8       481.8       481.8       481.9       482.0       482.2       482.3       482.5       482.7    
        483.0       483.2       483.4       483.7       484.1       484.5       484.7       484.7       484.0       483.0    
        482.8       484.2       483.4       0.000    
  13    0.000       483.0       482.4       482.1       482.0       481.6       481.1       480.8       480.6       480.6    
        480.6       480.6       480.7       480.7       480.8       480.9       480.9       481.0       481.0       481.0    
        481.0       481.0       481.1       481.1       481.1       481.1       481.1       481.1       481.2       481.2    
        481.2       481.2       481.2       481.2       481.3       481.3       481.3       481.3       481.4       481.4    
        481.4       481.4       481.5       481.5       481.6       481.7       481.8       482.0       482.2       482.4    
        482.7       483.0       483.3       483.7       484.1       484.4       484.6       484.4       483.4       482.0    
        481.8       483.7       482.9       0.000    
  14    0.000       483.0       482.4       482.2       482.0       481.5       481.0       480.5       480.1       480.0    
        480.0       480.0       480.1       480.3       480.4       480.6       480.7       480.7       480.8       480.9    
        480.9       480.9       480.9       480.9       480.9       480.9       481.0       481.0       481.0       481.0    
        481.0       481.0       481.0       481.0       481.1       481.1       481.1       481.1       481.1       481.1    
        481.2       481.2       481.2       481.3       481.3       481.4       481.5       481.7       481.9       482.2    
        482.5       482.9       483.2       483.6       484.0       484.3       484.5       484.1       482.7       481.0    
        480.8       483.2       482.4       0.000    
  15    0.000       483.0       482.3       482.1       481.9       481.5       480.9       480.2       479.8       479.5    
        479.4       479.4       479.4       479.6       479.9       480.2       480.4       480.5       480.6       480.7    
        480.8       480.8       480.8       480.8       480.8       480.9       480.9       480.9       480.9       480.9    
        480.9       480.9       480.9       480.9       480.9       480.9       480.9       480.9       480.9       480.9    
        480.9       480.9       481.0       481.0       481.0       481.1       481.2       481.4       481.6       481.9    
        482.3       482.7       483.1       483.5       484.0       484.3       484.4       483.8       482.0       480.0    
        480.1       482.9       482.0       0.000    
  16    0.000       483.0       482.2       482.0       481.9       481.5       480.8       480.0       479.4       479.0    
        478.8       478.7       478.7       478.8       479.1       479.5       479.8       480.1       480.3       480.4    
        480.6       480.7       480.8       480.8       480.8       480.8       480.8       480.8       480.8       480.8    
        480.8       480.8       480.7       480.7       480.7       480.6       480.6       480.6       480.6       480.6    
        480.6       480.6       480.6       480.6       480.7       480.7       480.9       481.0       481.3       481.7    
        482.1       482.5       482.9       483.4       483.8       484.2       484.2       483.4       481.2       479.1    
        479.5       482.5       481.7       0.000    
  17    0.000       483.0       482.0       481.9       481.7       481.4       480.7       479.9       479.1       478.5    
        478.1       477.9       477.8       477.8       477.9       478.4       478.8       479.2       479.5       479.8    
        480.0       480.3       480.5       481.0       481.1       480.9       480.8       480.7       480.6       480.6    
        480.4       480.3       480.2       480.1       480.0       479.9       479.8       479.8       479.8       479.8    
        479.8       479.8       479.9       479.9       480.0       480.1       480.3       480.5       480.8       481.2    
        481.7       482.2       482.6       483.1       483.6       484.0       484.1       482.9       480.3       477.8    
        478.9       482.0       481.2       0.000    
  18    0.000       483.0       481.8       481.7       481.5       481.2       480.6       479.7       478.8       478.1    
        477.6       477.2       476.9       476.7       476.7       477.1       477.6       478.0       478.4       478.7    
        479.1       479.6       480.1       480.8       481.3       481.3       481.0       480.7       480.4       480.0    
        479.8       479.5       479.2       479.0       478.7       478.6       478.6       478.6       478.7       478.7    
        478.8       478.8       478.9       479.0       479.1       479.3       479.5       479.8       480.1       480.7    
        481.2       481.7       482.2       482.8       483.3       483.8       483.8       482.2       479.2       476.5    
        478.4       481.5       480.7       0.000    
  19    0.000       482.9       481.6       481.5       481.4       481.1       480.5       479.5       478.6       477.9    
        477.3       476.8       476.4       476.1       476.0       476.1       476.6       477.1       477.5       477.9    
        478.4       478.9       479.6       480.4       480.9       481.4       481.2       480.8       480.2       479.6    
        479.1       478.7       478.3       477.9       477.6       477.5       477.5       477.6       477.7       477.8    
        477.9       478.0       478.0       478.2       478.4       478.6       478.9       479.2       479.6       480.2    
        480.8       481.3       481.9       482.5       483.1       483.6       483.6       481.8       478.4       475.6    
        478.1       481.2       480.4       0.000    
  20    0.000       482.9       481.4       481.3       481.2       480.9       480.4       479.4       478.5       477.6    
        477.0       476.5       476.0       475.6       475.3       475.2       475.7       476.1       476.6       477.0    
        477.6       478.2       479.0       479.8       480.3       480.6       480.9       480.7       480.3       479.3    
        478.5       477.8       477.2       476.6       476.2       476.2       476.3       476.4       476.6       476.7    
        476.9       477.0       477.1       477.3       477.6       477.9       478.2       478.6       479.0       479.6    
        480.3       480.9       481.5       482.2       482.8       483.4       483.3       481.3       477.6       474.7    
        477.8       480.8       480.1       0.000    
  21    0.000       482.8       481.3       481.1       481.0       480.8       480.3       479.3       478.3       477.5    
        476.8       476.2       475.7       475.1       474.7       474.6       474.9       475.3       475.8       476.2    
        476.8       477.4       478.3       479.2       479.6       479.7       479.8       480.0       479.8       479.3    
        478.2       477.2       476.3       475.6       475.1       475.0       475.2       475.4       475.6       475.8    
        475.9       476.1       476.2       476.5       476.8       477.2       477.6       478.0       478.5       479.1    
        479.8       480.5       481.2       481.9       482.6       483.1       483.0       480.8       476.9       473.9    
        477.6       480.5       479.8       0.000    
  22    0.000       482.8       481.1       481.0       480.9       480.6       480.1       479.2       478.2       477.4    
        476.6       476.0       475.4       474.8       474.3       474.0       474.2       474.7       475.1       475.6    
        476.1       476.8       477.6       478.6       479.0       479.0       478.4       478.6       479.3       478.5    
        477.9       476.8       475.8       474.9       474.2       474.1       474.3       474.5       474.8       475.0    
        475.2       475.3       475.5       475.8       476.2       476.6       477.0       477.4       477.9       478.6    
        479.4       480.1       480.8       481.6       482.3       482.9       482.7       480.4       476.3       473.2    
        477.4       480.3       479.6       0.000    
  23    0.000       482.7       481.0       480.8       480.7       480.5       480.0       479.1       478.1       477.3    
        476.5       475.9       475.3       474.6       474.0       473.6       473.6       474.1       474.5       475.0    
        475.5       476.1       477.0       478.0       478.5       478.4       477.7       477.0       478.1       478.6    
        477.0       476.3       475.3       474.3       473.5       473.4       473.5       473.8       474.0       474.3    
        474.5       474.6       474.8       475.2       475.6       476.0       476.5       476.9       477.4       478.2    
        479.0       479.8       480.5       481.3       482.1       482.6       482.4       480.0       475.8       472.6    
        477.2       480.0       479.4       0.000    
  24    0.000       482.7       480.9       480.6       480.5       480.4       479.9       479.0       478.1       477.2    
        476.4       475.8       475.1       474.4       473.7       473.3       473.1       473.5       473.9       474.4    
        474.9       475.5       476.4       477.5       477.9       477.7       477.0       476.4       476.0       479.1    
        477.2       475.2       474.6       473.8       472.9       472.8       472.9       473.1       473.3       473.6    
        473.8       474.0       474.2       474.5       474.9       475.4       475.9       476.4       476.9       477.7    
        478.6       479.4       480.2       481.1       481.8       482.3       482.0       479.6       475.2       472.0    
        477.0       479.8       479.1       0.000    
  25    0.000       482.6       480.8       480.4       480.4       480.2       479.8       478.9       478.0       477.1    
        476.3       475.6       475.0       474.2       473.5       472.9       472.7       473.0       473.4       473.8    
        474.3       474.8       475.8       476.9       477.4       477.1       476.3       475.8       475.6       476.7    
        479.2       475.0       473.4       472.9       472.3       472.2       472.3       472.5       472.7       472.9    
        473.1       473.3       473.5       473.9       474.3       474.8       475.3       475.8       476.3       477.2    
        478.2       479.1       479.9       480.8       481.6       482.0       481.7       479.2       474.6       471.4    
        476.9       479.6       478.9       0.000    
  26    0.000       482.5       480.6       480.2       480.2       480.0       479.6       478.8       477.9       477.0    
        476.2       475.5       474.8       474.1       473.3       472.6       472.3       472.5       472.8       473.2    
        473.7       474.2       475.3       476.4       476.8       476.4       475.6       475.0       474.1       473.3    
        476.4       477.6       472.9       471.9       471.5       471.6       471.8       471.9       472.1       472.4    
        472.5       472.7       472.9       473.3       473.7       474.2       474.7       475.1       475.7       476.6    
        477.7       478.7       479.5       480.5       481.3       481.7       481.4       478.7       474.0       470.8    
        476.7       479.3       478.7       0.000    
[...]
       -1.478      -1.576      -1.691      -1.796      -1.894      -1.971      -2.014      -2.049      -2.083      -2.118    
       -2.160      -2.207      -2.249      -2.289      -2.325      -2.356      -2.382      -2.405      -2.432      -2.459    
       -2.485      -2.510      -2.536      -2.564      -2.597      -2.632      -2.665      -2.695      -2.727      -2.756    
       -2.779      -2.797      -2.815      -2.828      -2.822      -2.805      -2.791      -2.752      -2.717      -2.681    
       -2.664      -2.664      -2.629      -2.570      -2.499      -2.428      -2.364      -2.311      -2.267      -2.209    
       -2.092      -1.747       0.000      -999.0    
  46   -999.0     -0.6648     -0.4600     -0.6219     -0.7995     -0.9517      -1.085      -1.208      -1.326      -1.439    
       -1.548      -1.652      -1.773      -1.878      -1.974      -2.048      -2.089      -2.123      -2.154      -2.187    
       -2.227      -2.269      -2.307      -2.343      -2.375      -2.401      -2.422      -2.441      -2.462      -2.484    
       -2.504      -2.524      -2.543      -2.564      -2.588      -2.613      -2.637      -2.658      -2.677      -2.693    
       -2.704      -2.713      -2.722      -2.732      -2.740      -2.747      -2.746      -2.721      -2.708      -2.702    
       -2.711      -2.716      -2.670      -2.599      -2.519      -2.442      -2.375      -2.320      -2.272      -2.212    
       -2.098      -1.758       0.000      -999.0    
  47   -999.0     -0.8215     -0.6068     -0.7265     -0.8800      -1.020      -1.147      -1.268      -1.385      -1.500    
       -1.610      -1.716      -1.838      -1.942      -2.035      -2.105      -2.144      -2.176      -2.205      -2.235    
       -2.270      -2.307      -2.340      -2.371      -2.398      -2.420      -2.438      -2.453      -2.470      -2.487    
       -2.503      -2.519      -2.535      -2.551      -2.570      -2.590      -2.609      -2.627      -2.643      -2.655    
       -2.664      -2.672      -2.680      -2.689      -2.697      -2.702      -2.687      -2.677      -2.682      -2.698    
       -2.728      -2.733      -2.683      -2.608      -2.526      -2.449      -2.382      -2.325      -2.277      -2.215    
       -2.104      -1.771       0.000      -999.0    
  48   -999.0     -0.9309     -0.7299     -0.8193     -0.9535      -1.083      -1.204      -1.321      -1.436      -1.549    
       -1.658      -1.763      -1.883      -1.984      -2.073      -2.141      -2.177      -2.207      -2.234      -2.261    
       -2.292      -2.325      -2.354      -2.380      -2.403      -2.422      -2.437      -2.450      -2.464      -2.479    
       -2.492      -2.506      -2.519      -2.533      -2.549      -2.566      -2.582      -2.597      -2.610      -2.621    
       -2.629      -2.636      -2.643      -2.652      -2.661      -2.667      -2.669      -2.671      -2.677      -2.686    
       -2.699      -2.692      -2.652      -2.590      -2.518      -2.448      -2.383      -2.327      -2.279      -2.216    
       -2.110      -1.784       0.000      -999.0    
  49   -999.0      -1.017     -0.8426     -0.9095      -1.026      -1.146      -1.260      -1.371      -1.482      -1.590    
       -1.695      -1.796      -1.912      -2.009      -2.096      -2.161      -2.196      -2.224      -2.249      -2.273    
       -2.301      -2.330      -2.356      -2.379      -2.398      -2.415      -2.428      -2.439      -2.452      -2.464    
       -2.476      -2.488      -2.499      -2.511      -2.526      -2.541      -2.555      -2.569      -2.581      -2.591    
       -2.599      -2.605      -2.612      -2.621      -2.630      -2.639      -2.644      -2.648      -2.649      -2.646    
       -2.642      -2.626      -2.596      -2.551      -2.496      -2.437      -2.379      -2.327      -2.279      -2.216    
       -2.115      -1.798       0.000      -999.0    
  50   -999.0      -1.095     -0.9588      -1.008      -1.108      -1.214      -1.318      -1.419      -1.518      -1.614    
       -1.709      -1.802      -1.914      -2.009      -2.096      -2.162      -2.195      -2.222      -2.245      -2.268    
       -2.294      -2.320      -2.343      -2.364      -2.381      -2.396      -2.408      -2.418      -2.429      -2.441    
       -2.452      -2.463      -2.473      -2.485      -2.498      -2.512      -2.526      -2.540      -2.552      -2.562    
       -2.569      -2.575      -2.583      -2.592      -2.602      -2.611      -2.617      -2.616      -2.609      -2.590    
       -2.567      -2.544      -2.521      -2.493      -2.457      -2.414      -2.368      -2.321      -2.277      -2.214    
       -2.120      -1.812       0.000      -999.0    
  51   -999.0      -1.145      -1.044      -1.086      -1.174      -1.271      -1.366      -1.457      -1.542      -1.620    
       -1.697      -1.781      -1.891      -1.989      -2.082      -2.153      -2.187      -2.213      -2.236      -2.259    
       -2.284      -2.309      -2.331      -2.351      -2.368      -2.382      -2.394      -2.404      -2.415      -2.426    
       -2.437      -2.448      -2.458      -2.470      -2.483      -2.498      -2.513      -2.527      -2.540      -2.551    
       -2.560      -2.567      -2.575      -2.586      -2.599      -2.611      -2.617      -2.612      -2.592      -2.547    
       -2.492      -2.461      -2.450      -2.438      -2.418      -2.388      -2.352      -2.312      -2.272      -2.211    
       -2.123      -1.822       0.000      -999.0    
  52   -999.0      -1.174      -1.100      -1.140      -1.221      -1.311      -1.401      -1.484      -1.554      -1.609    
       -1.657      -1.722      -1.838      -1.952      -2.060      -2.141      -2.176      -2.202      -2.226      -2.248    
       -2.273      -2.299      -2.320      -2.340      -2.358      -2.372      -2.383      -2.393      -2.405      -2.416    
       -2.427      -2.438      -2.449      -2.461      -2.475      -2.491      -2.507      -2.524      -2.539      -2.552    
       -2.562      -2.572      -2.583      -2.598      -2.618      -2.640      -2.655      -2.653      -2.616      -2.533    
       -2.408      -2.362      -2.394      -2.399      -2.388      -2.366      -2.336      -2.302      -2.265      -2.206    
       -2.124      -1.829       0.000      -999.0    
  53   -999.0      -1.193      -1.137      -1.177      -1.254      -1.340      -1.425      -1.502      -1.561      -1.587    
       -1.581      -1.597      -1.740      -1.901      -2.034      -2.127      -2.163      -2.190      -2.214      -2.237    
       -2.262      -2.288      -2.310      -2.330      -2.347      -2.361      -2.373      -2.383      -2.395      -2.406    
       -2.418      -2.429      -2.440      -2.452      -2.467      -2.484      -2.502      -2.520      -2.538      -2.554    
       -2.567      -2.579      -2.594      -2.616      -2.648      -2.688      -2.732      -2.755      -2.696      -2.567    
       -2.420      -2.366      -2.375      -2.376      -2.368      -2.349      -2.323      -2.293      -2.259      -2.202    
       -2.125      -1.834       0.000      -999.0    
  54   -999.0      -1.206      -1.166      -1.207      -1.281      -1.363      -1.444      -1.518      -1.570      -1.569    
       -1.471      -1.313      -1.566      -1.847      -2.008      -2.110      -2.147      -2.174      -2.199      -2.224    
       -2.250      -2.276      -2.297      -2.317      -2.334      -2.348      -2.361      -2.372      -2.384      -2.396    
       -2.408      -2.419      -2.430      -2.443      -2.457      -2.474      -2.491      -2.511      -2.532      -2.550    
       -2.567      -2.582      -2.600      -2.630      -2.674      -2.740      -2.832      -2.909      -2.794      -2.614    
       -2.463      -2.391      -2.372      -2.363      -2.352      -2.334      -2.311      -2.284      -2.252      -2.198    
       -2.125      -1.838       0.000      -999.0    
  55   -999.0      -1.217      -1.191      -1.234      -1.305      -1.384      -1.462      -1.534      -1.586      -1.583    
       -1.449      -1.104      -1.477      -1.824      -1.984      -2.087      -2.126      -2.151      -2.174      -2.202    
       -2.231      -2.257      -2.277      -2.296      -2.311      -2.324      -2.335      -2.345      -2.356      -2.368    
       -2.379      -2.391      -2.402      -2.415      -2.430      -2.447      -2.466      -2.486      -2.507      -2.526    
       -2.543      -2.559      -2.580      -2.612      -2.663      -2.739      -2.844      -2.930      -2.804      -2.620    
       -2.473      -2.397      -2.368      -2.351      -2.337      -2.320      -2.299      -2.274      -2.244      -2.195    
       -2.126      -1.842       0.000      -999.0    
  56   -999.0      -1.228      -1.216      -1.261      -1.330      -1.407      -1.483      -1.554      -1.612      -1.642    
       -1.629      -1.614      -1.727      -1.864      -1.965      -2.038      -2.086      -2.119      -2.144      -2.168    
       -2.194      -2.218      -2.238      -2.257      -2.273      -2.286      -2.296      -2.306      -2.317      -2.328    
       -2.338      -2.349      -2.360      -2.373      -2.388      -2.405      -2.424      -2.443      -2.462      -2.480    
       -2.495      -2.510      -2.527      -2.554      -2.593      -2.645      -2.703      -2.732      -2.675      -2.561    
       -2.449      -2.385      -2.356      -2.337      -2.321      -2.304      -2.285      -2.262      -2.235      -2.191    
       -2.126      -1.846       0.000      -999.0    
  57   -999.0      -1.239      -1.241      -1.289      -1.356      -1.430      -1.504      -1.575      -1.641      -1.697    
       -1.742      -1.784      -1.847      -1.907      -1.964      -2.012      -2.051      -2.081      -2.106      -2.128    
       -2.151      -2.174      -2.193      -2.210      -2.225      -2.237      -2.247      -2.256      -2.266      -2.276    
       -2.286      -2.296      -2.306      -2.317      -2.331      -2.346      -2.362      -2.378      -2.394      -2.408    
       -2.419      -2.430      -2.442      -2.460      -2.485      -2.513      -2.537      -2.544      -2.522      -2.466    
       -2.399      -2.354      -2.332      -2.316      -2.301      -2.285      -2.267      -2.246      -2.222      -2.186    
       -2.127      -1.851       0.000      -999.0    
  58   -999.0      -1.246      -1.264      -1.316      -1.382      -1.454      -1.525      -1.595      -1.661      -1.721    
       -1.774      -1.819      -1.869      -1.912      -1.952      -1.988      -2.019      -2.044      -2.064      -2.083    
       -2.103      -2.123      -2.140      -2.155      -2.168      -2.179      -2.188      -2.195      -2.204      -2.213    
       -2.221      -2.230      -2.238      -2.248      -2.259      -2.271      -2.284      -2.296      -2.308      -2.317    
       -2.325      -2.332      -2.341      -2.352      -2.367      -2.383      -2.395      -2.398      -2.391      -2.368    
       -2.336      -2.311      -2.296      -2.285      -2.273      -2.259      -2.243      -2.225      -2.206      -2.180    
       -2.126      -1.856       0.000      -999.0    
  59   -999.0      -1.251      -1.284      -1.340      -1.406      -1.475      -1.543      -1.609      -1.669      -1.724    
       -1.771      -1.812      -1.856      -1.893      -1.926      -1.955      -1.980      -2.000      -2.017      -2.033    
       -2.050      -2.066      -2.080      -2.093      -2.104      -2.113      -2.120      -2.126      -2.133      -2.141    
       -2.147      -2.154      -2.161      -2.168      -2.177      -2.187      -2.196      -2.206      -2.214      -2.221    
       -2.227      -2.232      -2.238      -2.246      -2.256      -2.267      -2.276      -2.282      -2.283      -2.279    
       -2.269      -2.258      -2.251      -2.244      -2.235      -2.226      -2.214      -2.203      -2.190      -2.170    
       -2.123      -1.857       0.000      -999.0    
  60   -999.0      -1.250      -1.299      -1.360      -1.425      -1.491      -1.555      -1.614      -1.667      -1.715    
       -1.755      -1.791      -1.828      -1.860      -1.888      -1.912      -1.932      -1.949      -1.963      -1.976    
       -1.989      -2.003      -2.014      -2.024      -2.033      -2.040      -2.046      -2.051      -2.057      -2.063    
       -2.068      -2.074      -2.079      -2.085      -2.093      -2.101      -2.108      -2.116      -2.123      -2.129    
       -2.134      -2.138      -2.143      -2.150      -2.159      -2.170      -2.180      -2.188      -2.193      -2.199    
       -2.202      -2.200      -2.197      -2.194      -2.191      -2.187      -2.183      -2.178      -2.171      -2.158    
       -2.119      -1.855       0.000      -999.0    
  61   -999.0      -1.245      -1.308      -1.374      -1.438      -1.499      -1.556      -1.608      -1.654      -1.694    
       -1.728      -1.757      -1.789      -1.816      -1.839      -1.860      -1.877      -1.891      -1.902      -1.913    
       -1.925      -1.936      -1.946      -1.954      -1.961      -1.967      -1.972      -1.976      -1.981      -1.986    
       -1.991      -1.996      -2.001      -2.006      -2.012      -2.019      -2.026      -2.033      -2.039      -2.044    
       -2.048      -2.052      -2.057      -2.064      -2.073      -2.083      -2.094      -2.104      -2.114      -2.124    
       -2.134      -2.138      -2.139      -2.141      -2.144      -2.146      -2.148      -2.149      -2.147      -2.141    
       -2.112      -1.860       0.000      -999.0    
  62   -999.0      -1.237      -1.314      -1.382      -1.443      -1.498      -1.547      -1.591      -1.628      -1.660    
       -1.688      -1.712      -1.737      -1.759      -1.779      -1.797      -1.811      -1.823      -1.833      -1.842    
       -1.852      -1.862      -1.870      -1.878      -1.884      -1.890      -1.894      -1.898      -1.903      -1.907    
       -1.911      -1.916      -1.920      -1.924      -1.930      -1.936      -1.942      -1.948      -1.954      -1.959    
       -1.962      -1.966      -1.970      -1.977      -1.985      -1.996      -2.007      -2.019      -2.032      -2.048    
       -2.065      -2.074      -2.079      -2.085      -2.092      -2.098      -2.105      -2.112      -2.119      -2.122    
       -2.103      -1.867       0.000      -999.0    
  63   -999.0      -1.225      -1.302      -1.368      -1.425      -1.474      -1.517      -1.554      -1.585      -1.612    
       -1.634      -1.653      -1.673      -1.694      -1.714      -1.731      -1.744      -1.754      -1.763      -1.770    
       -1.778      -1.787      -1.794      -1.801      -1.807      -1.812      -1.816      -1.820      -1.823      -1.828    
       -1.831      -1.835      -1.839      -1.843      -1.848      -1.854      -1.860      -1.865      -1.870      -1.875    
       -1.878      -1.882      -1.886      -1.892      -1.900      -1.911      -1.923      -1.936      -1.950      -1.969    
       -1.987      -1.999      -2.007      -2.017      -2.027      -2.038      -2.049      -2.063      -2.079      -2.092    
       -2.081      -1.864       0.000      -999.0    
  64   -999.0      -1.197      -1.272      -1.338      -1.393      -1.440      -1.479      -1.512      -1.539      -1.562    
       -1.581      -1.597      -1.613      -1.630      -1.644      -1.654      -1.659      -1.662      -1.663      -1.665    
       -1.667      -1.671      -1.675      -1.679      -1.684      -1.688      -1.692      -1.695      -1.699      -1.703    
       -1.706      -1.710      -1.714      -1.718      -1.722      -1.727      -1.732      -1.737      -1.741      -1.744    
       -1.747      -1.750      -1.753      -1.757      -1.763      -1.770      -1.778      -1.787      -1.796      -1.808    
       -1.821      -1.830      -1.839      -1.851      -1.867      -1.888      -1.912      -1.930      -1.935      -1.947    
       -1.933      -1.750       0.000      -999.0    
  65   -999.0       0.000       0.000       0.000       0.000       0.000       0.000       0.000       0.000       0.000    
        0.000       0.000       0.000       0.000       0.000       0.000       0.000       0.000       0.000       0.000    
        0.000       0.000       0.000       0.000       0.000       0.000       0.000       0.000       0.000       0.000    
        0.000       0.000       0.000       0.000       0.000       0.000       0.000       0.000       0.000       0.000    
        0.000       0.000       0.000       0.000       0.000       0.000       0.000       0.000       0.000       0.000    
        0.000       0.000       0.000       0.000       0.000       0.000       0.000       0.000       0.000       0.000    
        0.000       0.000       0.000      -999.0    
  66   -999.0      -999.0      -999.0      -999.0      -999.0      -999.0      -999.0      -999.0      -999.0      -999.0    
       -999.0      -999.0      -999.0      -999.0      -999.0      -999.0      -999.0      -999.0      -999.0      -999.0    
       -999.0      -999.0      -999.0      -999.0      -999.0      -999.0      -999.0      -999.0      -999.0      -999.0    
       -999.0      -999.0      -999.0      -999.0      -999.0      -999.0      -999.0      -999.0      -999.0      -999.0    
       -999.0      -999.0      -999.0      -999.0      -999.0      -999.0      -999.0      -999.0      -999.0      -999.0    
       -999.0      -999.0      -999.0      -999.0      -999.0      -999.0      -999.0      -999.0      -999.0      -999.0    
       -999.0      -999.0      -999.0      -999.0    

 DRAWDOWN WILL BE SAVED ON UNIT   35 AT END OF TIME STEP   1, STRESS PERIOD    1
1
  VOLUMETRIC BUDGET FOR ENTIRE MODEL AT END OF TIME STEP  1 IN STRESS PERIOD   1
  ------------------------------------------------------------------------------

     CUMULATIVE VOLUMES      L**3       RATES FOR THIS TIME STEP      L**3/T
     ------------------                 ------------------------

           IN:                                      IN:
           ---                                      ---
             STORAGE =     9823437.0000               STORAGE =     1964687.3750
       CONSTANT HEAD =      107273.2344         CONSTANT HEAD =       21454.6465
               WELLS =   653181632.0000                 WELLS =   130636328.0000
            RECHARGE =    64056780.0000              RECHARGE =    12811356.0000

            TOTAL IN =   727169088.0000              TOTAL IN =   145433824.0000

          OUT:                                     OUT:
          ----                                     ----
             STORAGE =   123156912.0000               STORAGE =    24631382.0000
       CONSTANT HEAD =   277421408.0000         CONSTANT HEAD =    55484284.0000
               WELLS =   326590816.0000                 WELLS =    65318164.0000
            RECHARGE =           0.0000              RECHARGE =           0.0000

           TOTAL OUT =   727169152.0000             TOTAL OUT =   145433824.0000

            IN - OUT =         -64.0000              IN - OUT =           0.0000

 PERCENT DISCREPANCY =           0.00     PERCENT DISCREPANCY =           0.00






          TIME SUMMARY AT END OF TIME STEP   1 IN STRESS PERIOD    1
                    SECONDS     MINUTES      HOURS       DAYS        YEARS
                    -----------------------------------------------------------
   TIME STEP LENGTH 1.57788E+08 2.62980E+06  43830.      1826.2      5.0000    
 STRESS PERIOD TIME 1.57788E+08 2.62980E+06  43830.      1826.2      5.0000    
         TOTAL TIME 1.57788E+08 2.62980E+06  43830.      1826.2      5.0000    
1
