                                  MODFLOW-2000
      U.S. GEOLOGICAL SURVEY MODULAR FINITE-DIFFERENCE GROUND-WATER FLOW MODEL
                             VERSION 1.10 07/26/2002


 This model run combines GLOBAL and LIST output into this single file.

 GLOBAL LISTING FILE: optdemo_fine.lst
                         UNIT   26

 OPENING TEST_fine.ba6
 FILE TYPE:BAS6   UNIT    1   STATUS:OLD    
 FORMAT:FORMATTED              ACCESS:SEQUENTIAL          

 OPENING TEST_fine.bc6
 FILE TYPE:BCF6   UNIT   11   STATUS:OLD    
 FORMAT:FORMATTED              ACCESS:SEQUENTIAL          

 OPENING optdemo_fine.oc
 FILE TYPE:OC   UNIT   10   STATUS:OLD    
 FORMAT:FORMATTED              ACCESS:SEQUENTIAL          

 OPENING optdemo_fine.pcg
 FILE TYPE:PCG   UNIT   12   STATUS:OLD    
 FORMAT:FORMATTED              ACCESS:SEQUENTIAL          

 OPENING optdemo.wel
 FILE TYPE:WEL   UNIT   13   STATUS:OLD    
 FORMAT:FORMATTED              ACCESS:SEQUENTIAL          

 OPENING optdemo_fine.rch
 FILE TYPE:RCH   UNIT   20   STATUS:OLD    
 FORMAT:FORMATTED              ACCESS:SEQUENTIAL          

 OPENING optdemo_fine.lmt
 FILE TYPE:LMT6   UNIT   29   STATUS:OLD    
 FORMAT:FORMATTED              ACCESS:SEQUENTIAL          

 OPENING TEST_fine.dis
 FILE TYPE:DIS   UNIT   14   STATUS:OLD    
 FORMAT:FORMATTED              ACCESS:SEQUENTIAL          

 THE FREE FORMAT OPTION HAS BEEN SELECTED

 DISCRETIZATION INPUT DATA READ FROM UNIT   14
    5 LAYERS       132 ROWS       125 COLUMNS
    1 STRESS PERIOD(S) IN SIMULATION
 MODEL TIME UNIT IS YEARS
 MODEL LENGTH UNIT IS UNDEFINED
 THE GROUND-WATER TRANSPORT PROCESS IS INACTIVE

 THE OBSERVATION PROCESS IS INACTIVE
 THE SENSITIVITY PROCESS IS INACTIVE
 THE PARAMETER-ESTIMATION PROCESS IS INACTIVE

 MODE: FORWARD

  Confining bed flag for each layer:
   1   1   1   1   0

     808757  ELEMENTS OF GX ARRAY USED OUT OF     808757
      82500  ELEMENTS OF GZ ARRAY USED OUT OF      82500
      82500  ELEMENTS OF IG ARRAY USED OUT OF      82500



                               DELR
 READING ON UNIT   14 WITH FORMAT: (10F13.0)           



                               DELC
 READING ON UNIT   14 WITH FORMAT: (10F13.0)           

 TOP ELEVATION OF LAYER 1 =   999.000    



             MODEL LAYER BOTTOM EL. FOR LAYER   1
 READING ON UNIT   14 WITH FORMAT: (10F13.0)           

            1           2           3           4           5           6           7           8           9          10
           11          12          13          14          15          16          17          18          19          20
           21          22          23          24          25          26          27          28          29          30
           31          32          33          34          35          36          37          38          39          40
           41          42          43          44          45          46          47          48          49          50
           51          52          53          54          55          56          57          58          59          60
           61          62          63          64          65          66          67          68          69          70
           71          72          73          74          75          76          77          78          79          80
           81          82          83          84          85          86          87          88          89          90
           91          92          93          94          95          96          97          98          99         100
          101         102         103         104         105         106         107         108         109         110
          111         112         113         114         115         116         117         118         119         120
          121         122         123         124         125
 ........................................................................................................................
   1    0.000       0.000       0.000       0.000       0.000       0.000       0.000       0.000       0.000       0.000    
        0.000       0.000       0.000       0.000       0.000       0.000       0.000       0.000       0.000       0.000    
        0.000       0.000       0.000       0.000       0.000       0.000       0.000       0.000       0.000       0.000    
        0.000       0.000       0.000       0.000       0.000       0.000       0.000       0.000       0.000       0.000    
        0.000       0.000       0.000       0.000       0.000       0.000       0.000       0.000       0.000       0.000    
        0.000       0.000       0.000       0.000       0.000       0.000       0.000       0.000       0.000       0.000    
        0.000       0.000       0.000       0.000       0.000       0.000       0.000       0.000       0.000       0.000    
        0.000       0.000       0.000       0.000       0.000       0.000       0.000       0.000       0.000       0.000    
        0.000       0.000       0.000       0.000       0.000       0.000       0.000       0.000       0.000       0.000    
        0.000       0.000       0.000       0.000       0.000       0.000       0.000       0.000       0.000       0.000    
        0.000       0.000       0.000       0.000       0.000       0.000       0.000       0.000       0.000       0.000    
        0.000       0.000       0.000       0.000       0.000       0.000       0.000       0.000       0.000       0.000    
        0.000       0.000       0.000       0.000       0.000    
   2    0.000       0.000       0.000       0.000       0.000       0.000       0.000       0.000       0.000       0.000    
        0.000       0.000       0.000       0.000       0.000       0.000       0.000       0.000       0.000       0.000    
        0.000       0.000       0.000       0.000       0.000       0.000       0.000       0.000       0.000       0.000    
        0.000       0.000       0.000       0.000       0.000       0.000       0.000       0.000       0.000       0.000    
        0.000       0.000       0.000       0.000       0.000       0.000       0.000       0.000       0.000       0.000    
        0.000       0.000       0.000       0.000       0.000       0.000       0.000       0.000       0.000       0.000    
        0.000       0.000       0.000       0.000       0.000       0.000       0.000       0.000       0.000       0.000    
        0.000       0.000       0.000       0.000       0.000       0.000       0.000       0.000       0.000       0.000    
        0.000       0.000       0.000       0.000       0.000       0.000       0.000       0.000       0.000       0.000    
        0.000       0.000       0.000       0.000       0.000       0.000       0.000       0.000       0.000       0.000    
        0.000       0.000       0.000       0.000       0.000       0.000       0.000       0.000       0.000       0.000    
        0.000       0.000       0.000       0.000       0.000       0.000       0.000       0.000       0.000       0.000    
        0.000       0.000       0.000       0.000       0.000    
   3    0.000       487.7       488.1       487.8       487.5       487.4       487.4       487.3       487.3       487.3    
        487.4       485.0       485.0       485.0       485.0       485.0       485.0       485.0       485.0       485.0    
        485.0       487.3       487.3       487.3       487.3       487.3       487.3       487.2       487.2       487.2    
        487.2       487.2       487.1       487.1       487.1       487.1       487.1       487.1       487.1       487.1    
        487.0       487.0       487.0       487.0       487.0       487.0       487.0       487.0       487.0       487.0    
        487.0       487.0       486.9       486.9       486.9       486.9       486.9       486.9       486.9       486.9    
        486.9       486.9       486.9       486.9       486.9       486.9       486.9       486.9       486.9       486.9    
        486.8       486.8       486.8       486.8       486.8       486.8       486.8       486.8       486.8       486.8    
        486.8       486.8       486.8       486.8       486.8       486.8       486.8       486.7       486.7       486.7    
        486.7       486.7       486.7       486.7       486.6       486.6       486.6       486.6       486.6       486.5    
        486.5       486.5       486.5       486.5       486.4       486.4       486.4       486.4       486.3       486.3    
        486.2       486.2       486.1       486.1       486.0       485.9       485.8       485.7       485.6       485.5    
        485.3       485.1       484.8       484.5       0.000    
   4    0.000       488.7       489.2       488.9       488.7       488.6       488.5       488.5       488.5       488.5    
        488.5       488.5       488.5       488.5       488.5       488.5       488.5       488.5       488.5       488.5    
        488.5       488.5       488.5       488.4       488.4       488.4       488.4       488.4       488.4       488.3    
        488.3       488.3       488.3       488.3       488.3       488.3       488.3       488.2       488.2       488.2    
        488.2       488.2       488.2       488.2       488.2       488.2       488.2       488.2       488.2       488.1    
        488.1       488.1       488.1       488.1       488.1       488.1       488.1       488.1       488.1       488.1    
        488.1       488.1       488.1       488.1       488.1       488.1       488.1       488.1       488.1       488.1    
        488.1       488.1       488.1       488.0       488.0       488.0       488.0       488.0       488.0       488.0    
        488.0       488.0       488.0       488.0       488.0       488.0       488.0       488.0       488.0       488.0    
        488.0       487.9       487.9       487.9       487.9       487.9       487.9       487.9       487.8       487.8    
        487.8       487.8       487.8       487.8       487.7       487.7       487.7       487.7       487.6       487.6    
        487.6       487.5       487.5       487.4       487.4       487.3       487.2       487.1       486.9       486.8    
        486.6       486.3       486.0       485.6       0.000    
   5    0.000       489.6       490.2       490.0       489.9       489.7       489.7       489.6       489.6       489.6    
        489.6       489.6       489.6       489.6       489.6       489.6       489.6       489.6       489.6       489.6    
        489.6       489.6       489.6       489.6       489.5       489.5       489.5       489.5       489.5       489.5    
        489.4       489.4       489.4       489.4       489.4       489.4       489.4       489.4       489.4       489.4    
        489.4       489.4       489.4       489.3       489.3       489.3       489.3       489.3       489.3       489.3    
        489.3       489.3       489.3       489.3       489.3       489.3       489.3       489.3       489.3       489.3    
        489.3       489.3       489.3       489.3       489.3       489.3       489.3       489.3       489.3       489.3    
        489.3       489.3       489.3       489.3       489.3       489.3       489.3       489.2       489.2       489.2    
        489.2       489.2       489.2       489.2       489.2       489.2       489.2       489.2       489.2       489.2    
        489.2       489.2       489.2       489.2       489.2       489.2       489.2       489.2       489.1       489.1    
        489.1       489.1       489.1       489.1       489.1       489.1       489.0       489.0       489.0       489.0    
        489.0       488.9       488.9       488.8       488.8       488.7       488.6       488.5       488.4       488.2    
        488.0       487.7       487.3       486.9       0.000    
   6    0.000       490.5       491.1       491.1       491.0       490.9       490.8       490.7       490.7       490.7    
        490.7       490.7       490.7       490.7       490.7       490.6       490.6       490.6       490.6       490.6    
        490.6       490.6       490.6       490.6       490.6       490.5       490.5       490.5       490.5       490.5    
        490.5       490.5       490.5       490.5       490.4       490.4       490.4       490.4       490.4       490.4    
        490.4       490.4       490.4       490.4       490.4       490.4       490.4       490.4       490.4       490.4    
        490.4       490.4       490.4       490.4       490.4       490.4       490.4       490.4       490.4       490.4    
        490.4       490.4       490.4       490.4       490.4       490.4       490.4       490.4       490.4       490.4    
        490.4       490.4       490.4       490.4       490.4       490.4       490.4       490.4       490.4       490.4    
        490.4       490.4       490.4       490.4       490.4       490.4       490.4       490.4       490.4       490.4    
        490.4       490.4       490.4       490.4       490.4       490.4       490.4       490.4       490.4       490.4    
        490.4       490.4       490.4       490.4       490.4       490.3       490.3       490.3       490.3       490.3    
        490.3       490.3       490.2       490.2       490.2       490.1       490.0       489.9       489.8       489.6    
        489.4       489.0       488.6       488.2       0.000    
   7    0.000       491.3       492.0       492.0       491.9       491.8       491.8       491.7       491.7       491.6    
        491.6       491.6       491.6       491.6       491.6       491.6       491.5       491.5       491.5       491.5    
        491.5       491.5       491.5       491.4       491.4       491.4       491.4       491.4       491.4       491.3    
        491.3       491.3       491.3       491.3       491.3       491.3       491.3       491.3       491.3       491.3    
        491.3       491.3       491.3       491.3       491.3       491.3       491.3       491.3       491.3       491.3    
        491.3       491.3       491.3       491.3       491.3       491.3       491.3       491.3       491.3       491.3    
        491.3       491.3       491.3       491.3       491.3       491.3       491.3       491.3       491.3       491.3    
        491.3       491.3       491.3       491.3       491.3       491.3       491.3       491.3       491.3       491.3    
        491.4       491.4       491.4       491.4       491.4       491.4       491.4       491.4       491.4       491.4    
        491.4       491.4       491.4       491.4       491.4       491.4       491.4       491.4       491.4       491.4    
        491.4       491.4       491.4       491.4       491.4       491.5       491.5       491.5       491.5       491.5    
        491.5       491.4       491.4       491.4       491.4       491.3       491.3       491.2       491.0       490.9    
        490.6       490.3       489.9       489.5       0.000    
   8    0.000       492.0       492.7       492.7       492.7       492.6       492.6       492.5       492.5       492.5    
        492.4       492.4       492.4       492.3       492.3       492.3       492.3       492.2       492.2       492.2    
        492.2       492.2       492.1       492.1       492.1       492.1       492.1       492.0       492.0       492.0    
        492.0       492.0       492.0       492.0       492.0       492.0       492.0       492.0       492.0       492.0    
        492.0       492.0       492.0       492.0       492.0       492.0       492.0       492.0       492.0       492.0    
        492.0       492.0       492.0       492.0       492.0       492.0       492.0       492.0       492.0       492.0    
        492.0       492.0       492.0       492.1       492.1       492.1       492.1       492.1       492.1       492.1    
        492.1       492.1       492.1       492.1       492.1       492.1       492.1       492.1       492.1       492.1    
        492.1       492.1       492.1       492.1       492.1       492.1       492.1       492.1       492.1       492.1    
        492.2       492.2       492.2       492.2       492.2       492.2       492.2       492.2       492.2       492.3    
        492.3       492.3       492.3       492.3       492.3       492.3       492.3       492.4       492.4       492.4    
        492.4       492.4       492.4       492.4       492.4       492.3       492.3       492.2       492.1       491.9    
        491.7       491.4       491.0       490.6       0.000    
   9    0.000       492.5       493.2       493.3       493.3       493.3       493.3       493.2       493.2       493.1    
        493.1       493.0       493.0       492.9       492.9       492.9       492.8       492.8       492.8       492.7    
        492.7       492.7       492.7       492.6       492.6       492.6       492.6       492.6       492.6       492.5    
        492.5       492.5       492.5       492.5       492.5       492.5       492.5       492.5       492.5       492.5    
        492.5       492.5       492.5       492.5       492.5       492.5       492.6       492.6       492.6       492.6    
        492.6       492.6       492.6       492.6       492.6       492.6       492.6       492.6       492.6       492.6    
        492.6       492.6       492.6       492.6       492.6       492.6       492.6       492.6       492.6       492.6    
        492.6       492.6       492.6       492.6       492.6       492.7       492.7       492.7       492.7       492.7    
        492.7       492.7       492.7       492.7       492.7       492.7       492.7       492.7       492.7       492.7    
        492.8       492.8       492.8       492.8       492.8       492.8       492.8       492.9       492.9       492.9    
        492.9       492.9       493.0       493.0       493.0       493.0       493.0       493.1       493.1       493.1    
        493.1       493.1       493.1       493.2       493.2       493.1       493.1       493.0       493.0       492.8    
        492.6       492.2       491.9       491.7       0.000    
  10    0.000       493.0       493.6       493.7       493.8       493.8       493.8       493.7       493.7       493.6    
        493.6       493.5       493.4       493.4       493.3       493.3       493.2       493.2       493.1       493.1    
        493.1       493.0       493.0       493.0       493.0       493.0       492.9       492.9       492.9       492.9    
        492.9       492.9       492.9       492.9       492.9       492.9       492.9       492.9       492.9       492.9    
        492.9       492.9       492.9       492.9       492.9       492.9       492.9       492.9       492.9       492.9    
        492.9       493.0       493.0       493.0       493.0       493.0       493.0       493.0       493.0       493.0    
        493.0       493.0       493.0       493.0       493.0       493.0       493.0       493.0       493.0       493.0    
        493.0       493.0       493.0       493.0       493.0       493.1       493.1       493.1       493.1       493.1    
        493.1       493.1       493.1       493.1       493.1       493.1       493.1       493.1       493.2       493.2    
        493.2       493.2       493.2       493.2       493.3       493.3       493.3       493.3       493.4       493.4    
        493.4       493.4       493.5       493.5       493.5       493.5       493.5       493.6       493.6       493.6    
        493.7       493.7       493.7       493.7       493.7       493.7       493.7       493.7       493.6       493.5    
        493.2       493.0       492.7       492.5       0.000    
  11    0.000       493.4       494.0       494.1       494.2       494.2       494.2       494.1       494.1       494.0    
        493.9       493.9       493.8       493.7       493.7       493.6       493.5       493.4       493.4       493.3    
        493.3       493.3       493.2       493.2       493.2       493.2       493.2       493.1       493.1       493.1    
        493.1       493.1       493.1       493.1       493.1       493.1       493.1       493.1       493.2       493.2    
        493.2       493.2       493.2       493.2       493.2       493.2       493.2       493.2       493.2       493.2    
        493.2       493.2       493.2       493.2       493.2       493.2       493.2       493.2       493.2       493.2    
        493.2       493.2       493.2       493.3       493.3       493.3       493.3       493.3       493.3       493.3    
        493.3       493.3       493.3       493.3       493.3       493.3       493.3       493.4       493.4       493.4    
        493.4       493.4       493.4       493.4       493.4       493.4       493.4       493.4       493.4       493.5    
        493.5       493.5       493.5       493.5       493.6       493.6       493.6       493.7       493.7       493.7    
        493.8       493.8       493.8       493.8       493.9       493.9       493.9       493.9       494.0       494.0    
        494.1       494.1       494.1       494.2       494.2       494.2       494.2       494.1       494.1       493.9    
        493.7       493.5       493.4       493.3       0.000    
  12    0.000       493.7       494.2       494.3       494.4       494.5       494.5       494.4       494.4       494.3    
        494.2       494.1       494.1       494.0       493.9       493.8       493.7       493.6       493.6       493.5    
        493.5       493.4       493.4       493.3       493.3       493.3       493.3       493.2       493.2       493.2    
        493.2       493.2       493.2       493.2       493.2       493.2       493.2       493.2       493.3       493.3    
        493.3       493.3       493.3       493.3       493.3       493.3       493.3       493.3       493.3       493.3    
        493.3       493.3       493.4       493.4       493.4       493.4       493.4       493.4       493.4       493.4    
        493.4       493.4       493.4       493.4       493.4       493.4       493.4       493.4       493.4       493.5    
        493.5       493.5       493.5       493.5       493.5       493.5       493.5       493.5       493.5       493.5    
        493.5       493.6       493.6       493.6       493.6       493.6       493.6       493.6       493.6       493.7    
        493.7       493.7       493.7       493.8       493.8       493.8       493.8       493.9       493.9       494.0    
        494.0       494.0       494.1       494.1       494.1       494.1       494.2       494.2       494.3       494.3    
        494.3       494.4       494.4       494.5       494.5       494.5       494.5       494.5       494.4       494.3    
        494.1       494.0       493.9       493.8       0.000    
  13    0.000       494.0       494.4       494.5       494.6       494.7       494.7       494.7       494.6       494.5    
        494.4       494.3       494.2       494.1       494.0       493.9       493.8       493.7       493.6       493.6    
        493.5       493.5       493.4       493.4       493.4       493.3       493.3       493.3       493.2       493.2    
        493.2       493.2       493.2       493.2       493.2       493.2       493.2       493.2       493.2       493.2    
        493.2       493.3       493.3       493.3       493.3       493.3       493.3       493.3       493.3       493.3    
        493.3       493.4       493.4       493.4       493.4       493.4       493.4       493.4       493.4       493.4    
        493.4       493.4       493.4       493.5       493.5       493.5       493.5       493.5       493.5       493.5    
        493.5       493.5       493.6       493.6       493.6       493.6       493.6       493.6       493.6       493.6    
        493.6       493.6       493.7       493.7       493.7       493.7       493.7       493.7       493.7       493.8    
        493.8       493.8       493.8       493.9       493.9       493.9       494.0       494.0       494.1       494.1    
        494.1       494.2       494.2       494.2       494.3       494.3       494.4       494.4       494.4       494.5    
        494.5       494.6       494.6       494.7       494.7       494.7       494.7       494.7       494.6       494.5    
        494.4       494.4       494.3       494.3       0.000    
  14    0.000       494.2       494.6       494.7       494.7       494.8       494.8       494.8       494.8       494.7    
        494.6       494.5       494.3       494.2       494.1       493.9       493.8       493.8       493.7       493.6    
        493.5       493.5       493.4       493.4       493.3       493.3       493.3       493.2       493.2       493.2    
        493.2       493.1       493.1       493.1       493.1       493.1       493.1       493.1       493.1       493.1    
        493.1       493.2       493.2       493.2       493.2       493.2       493.2       493.2       493.2       493.2    
        493.3       493.3       493.3       493.3       493.3       493.3       493.3       493.3       493.3       493.3    
        493.3       493.3       493.4       493.4       493.4       493.4       493.4       493.4       493.4       493.4    
        493.5       493.5       493.5       493.5       493.5       493.6       493.6       493.6       493.6       493.6    
        493.6       493.6       493.6       493.7       493.7       493.7       493.7       493.7       493.8       493.8    
        493.8       493.9       493.9       493.9       494.0       494.0       494.0       494.1       494.1       494.2    
        494.2       494.3       494.3       494.3       494.4       494.4       494.5       494.5       494.6       494.6    
        494.7       494.7       494.8       494.8       494.8       494.9       494.9       494.8       494.8       494.7    
        494.7       494.6       494.6       494.6       0.000    
  15    0.000       494.4       494.7       494.8       494.8       494.9       494.9       494.9       494.9       494.8    
        494.7       494.5       494.4       494.2       494.1       494.0       493.9       493.8       493.7       493.6    
        493.5       493.5       493.4       493.3       493.3       493.2       493.2       493.1       493.1       493.1    
        493.0       493.0       493.0       493.0       493.0       493.0       493.0       493.0       493.0       493.0    
        493.0       493.0       493.0       493.0       493.0       493.0       493.1       493.1       493.1       493.1    
        493.1       493.1       493.1       493.1       493.1       493.1       493.2       493.2       493.2       493.2    
        493.2       493.2       493.2       493.2       493.2       493.2       493.3       493.3       493.3       493.3    
        493.3       493.3       493.4       493.4       493.4       493.4       493.4       493.5       493.5       493.5    
        493.5       493.5       493.5       493.5       493.5       493.6       493.6       493.6       493.7       493.7    
        493.7       493.8       493.8       493.9       493.9       494.0       494.0       494.1       494.2       494.2    
        494.3       494.3       494.4       494.4       494.4       494.5       494.5       494.6       494.6       494.7    
        494.7       494.8       494.9       494.9       494.9       494.9       494.9       494.9       494.9       494.9    
        494.8       494.8       494.8       494.8       0.000    
  16    0.000       494.5       494.8       494.9       494.9       494.9       495.0       495.0       494.9       494.9    
        494.7       494.6       494.4       494.2       494.1       493.9       493.8       493.7       493.6       493.5    
        493.4       493.4       493.3       493.2       493.2       493.1       493.1       493.0       493.0       492.9    
        492.9       492.9       492.8       492.8       492.8       492.8       492.8       492.8       492.8       492.8    
        492.8       492.8       492.8       492.8       492.8       492.9       492.9       492.9       492.9       492.9    
        492.9       492.9       492.9       492.9       492.9       493.0       493.0       493.0       493.0       493.0    
        493.0       493.0       493.0       493.0       493.0       493.1       493.1       493.1       493.1       493.1    
        493.1       493.2       493.2       493.2       493.2       493.2       493.3       493.3       493.3       493.3    
        493.3       493.3       493.3       493.4       493.4       493.4       493.4       493.5       493.5       493.5    
        493.6       493.6       493.7       493.7       493.8       493.9       493.9       494.0       494.1       494.2    
        494.2       494.3       494.3       494.4       494.4       494.5       494.6       494.6       494.7       494.7    
        494.8       494.8       494.9       494.9       495.0       495.0       495.0       495.0       495.0       494.9    
        494.9       494.9       494.9       494.9       0.000    
  17    0.000       494.6       494.9       494.9       494.9       495.0       495.0       495.0       495.0       494.9    
        494.7       494.6       494.4       494.2       494.0       493.9       493.8       493.6       493.5       493.4    
        493.3       493.3       493.2       493.1       493.1       493.0       492.9       492.9       492.8       492.7    
        492.7       492.7       492.7       492.6       492.6       492.6       492.6       492.6       492.6       492.6    
        492.6       492.6       492.6       492.6       492.6       492.6       492.6       492.7       492.7       492.7    
        492.7       492.7       492.7       492.7       492.7       492.7       492.7       492.8       492.8       492.8    
        492.8       492.8       492.8       492.8       492.8       492.8       492.9       492.9       492.9       492.9    
        492.9       492.9       493.0       493.0       493.0       493.0       493.0       493.1       493.1       493.1    
        493.1       493.1       493.1       493.2       493.2       493.2       493.2       493.3       493.3       493.3    
        493.4       493.5       493.5       493.6       493.6       493.7       493.8       493.8       493.9       494.0    
        494.1       494.2       494.2       494.3       494.4       494.4       494.5       494.6       494.6       494.7    
        494.8       494.9       494.9       495.0       495.0       495.0       495.0       495.0       495.0       495.0    
        495.0       495.0       495.0       494.8       0.000    
  18    0.000       494.7       494.9       495.0       495.0       495.0       495.0       495.0       495.0       494.9    
        494.7       494.5       494.4       494.2       494.0       493.8       493.7       493.5       493.4       493.3    
        493.2       493.1       493.1       493.0       492.9       492.8       492.7       492.7       492.6       492.6    
        492.5       492.5       492.5       492.4       492.4       492.4       492.4       492.4       492.4       492.4    
        492.4       492.4       492.4       492.4       492.4       492.4       492.4       492.4       492.4       492.4    
        492.5       492.5       492.5       492.5       492.5       492.5       492.5       492.5       492.5       492.5    
        492.5       492.6       492.6       492.6       492.6       492.6       492.6       492.6       492.6       492.7    
        492.7       492.7       492.7       492.7       492.8       492.8       492.8       492.8       492.8       492.9    
        492.9       492.9       492.9       492.9       492.9       493.0       493.0       493.0       493.1       493.1    
        493.2       493.2       493.3       493.4       493.4       493.5       493.6       493.7       493.8       493.9    
        493.9       494.0       494.1       494.2       494.2       494.3       494.4       494.5       494.6       494.7    
        494.7       494.8       494.9       495.0       495.0       495.0       495.0       495.0       495.0       495.0    
        495.0       495.0       495.0       494.7       0.000    
  19    0.000       494.8       495.0       495.0       495.0       495.0       495.0       495.0       495.0       494.9    
        494.7       494.5       494.3       494.1       493.9       493.7       493.6       493.4       493.3       493.2    
        493.1       493.0       492.9       492.8       492.7       492.7       492.6       492.5       492.4       492.4    
        492.3       492.3       492.2       492.2       492.2       492.2       492.1       492.1       492.1       492.1    
        492.1       492.1       492.1       492.1       492.1       492.2       492.2       492.2       492.2       492.2    
        492.2       492.2       492.2       492.2       492.2       492.2       492.3       492.3       492.3       492.3    
        492.3       492.3       492.3       492.3       492.3       492.4       492.4       492.4       492.4       492.4    
        492.4       492.5       492.5       492.5       492.5       492.5       492.6       492.6       492.6       492.6    
        492.6       492.6       492.7       492.7       492.7       492.7       492.8       492.8       492.8       492.9    
        493.0       493.0       493.1       493.1       493.2       493.3       493.4       493.5       493.6       493.7    
        493.8       493.9       493.9       494.0       494.1       494.2       494.3       494.4       494.5       494.6    
        494.7       494.8       494.9       495.0       495.0       495.0       495.0       495.0       494.9       494.9    
        494.8       494.8       494.8       494.5       0.000    
  20    0.000       494.8       495.0       495.0       495.0       495.0       495.0       495.0       494.9       494.8    
        494.6       494.4       494.2       494.0       493.8       493.6       493.4       493.3       493.2       493.0    
        492.9       492.8       492.7       492.7       492.6       492.5       492.4       492.3       492.2       492.2    
        492.1       492.1       492.0       492.0       492.0       491.9       491.9       491.9       491.9       491.9    
        491.9       491.9       491.9       491.9       491.9       491.9       491.9       491.9       491.9       491.9    
        491.9       492.0       492.0       492.0       492.0       492.0       492.0       492.0       492.0       492.0    
        492.0       492.0       492.1       492.1       492.1       492.1       492.1       492.1       492.1       492.2    
        492.2       492.2       492.2       492.2       492.3       492.3       492.3       492.3       492.3       492.4    
        492.4       492.4       492.4       492.4       492.4       492.5       492.5       492.6       492.6       492.6    
        492.7       492.8       492.8       492.9       493.0       493.1       493.2       493.3       493.4       493.5    
        493.6       493.7       493.8       493.9       493.9       494.0       494.1       494.3       494.4       494.5    
        494.6       494.7       494.9       495.0       495.0       495.0       494.9       494.9       494.7       494.6    
        494.5       494.5       494.8       494.2       0.000    
  21    0.000       494.9       495.0       495.0       495.0       495.0       495.0       495.0       494.8       494.7    
        494.5       494.3       494.1       493.9       493.7       493.5       493.3       493.1       493.0       492.9    
        492.7       492.6       492.6       492.5       492.4       492.3       492.2       492.1       492.0       492.0    
        491.9       491.8       491.8       491.8       491.7       491.7       491.7       491.7       491.7       491.6    
        491.6       491.6       491.6       491.6       491.6       491.7       491.7       491.7       491.7       491.7    
        491.7       491.7       491.7       491.7       491.7       491.7       491.8       491.8       491.8       491.8    
        491.8       491.8       491.8       491.8       491.8       491.8       491.9       491.9       491.9       491.9    
        491.9       492.0       492.0       492.0       492.0       492.0       492.1       492.1       492.1       492.1    
        492.1       492.1       492.2       492.2       492.2       492.2       492.3       492.3       492.3       492.4    
        492.5       492.5       492.6       492.7       492.8       492.8       492.9       493.0       493.2       493.3    
        493.4       493.5       493.6       493.7       493.8       493.9       494.0       494.1       494.3       494.4    
        494.6       494.8       494.9       495.0       495.0       495.0       494.9       494.7       494.5       494.3    
        494.1       494.0       494.7       494.0       0.000    
  22    0.000       494.9       495.0       495.0       495.0       495.0       495.0       495.0       494.8       494.5    
        494.3       494.1       493.9       493.7       493.5       493.3       493.1       492.9       492.8       492.7    
        492.6       492.5       492.4       492.3       492.2       492.1       492.0       491.9       491.8       491.8    
        491.7       491.6       491.6       491.6       491.5       491.5       491.5       491.5       491.4       491.4    
        491.4       491.4       491.4       491.4       491.4       491.4       491.4       491.4       491.4       491.5    
        491.5       491.5       491.5       491.5       491.5       491.5       491.5       491.5       491.5       491.5    
        491.6       491.6       491.6       491.6       491.6       491.6       491.6       491.6       491.6       491.7    
        491.7       491.7       491.7       491.7       491.8       491.8       491.8       491.8       491.8       491.9    
        491.9       491.9       491.9       491.9       491.9       492.0       492.0       492.1       492.1       492.2    
        492.2       492.3       492.4       492.4       492.5       492.6       492.7       492.8       493.0       493.1    
        493.2       493.3       493.4       493.5       493.6       493.8       493.9       494.0       494.2       494.4    
        494.6       494.8       494.9       495.0       495.0       494.9       494.7       494.4       494.1       493.8    
        493.6       493.5       494.5       493.7       0.000    
  23    0.000       494.9       495.0       495.0       495.0       495.0       495.0       495.0       494.7       494.5    
        494.2       493.9       493.7       493.4       493.2       493.0       492.9       492.7       492.6       492.4    
        492.3       492.2       492.1       492.1       492.0       491.9       491.8       491.7       491.6       491.6    
        491.5       491.4       491.4       491.4       491.3       491.3       491.3       491.3       491.2       491.2    
        491.2       491.2       491.2       491.2       491.2       491.2       491.2       491.2       491.2       491.2    
        491.2       491.3       491.3       491.3       491.3       491.3       491.3       491.3       491.3       491.3    
        491.3       491.3       491.3       491.4       491.4       491.4       491.4       491.4       491.4       491.4    
        491.5       491.5       491.5       491.5       491.5       491.6       491.6       491.6       491.6       491.6    
        491.6       491.7       491.7       491.7       491.7       491.7       491.8       491.8       491.9       491.9    
        492.0       492.1       492.1       492.2       492.3       492.4       492.5       492.6       492.8       492.9    
        493.0       493.1       493.3       493.4       493.5       493.6       493.8       494.0       494.2       494.4    
        494.7       494.8       495.0       495.0       495.0       494.8       494.5       494.1       493.6       493.3    
        493.0       493.2       494.3       493.4       0.000    
  24    0.000       494.9       495.0       495.0       495.0       495.0       495.0       495.0       494.7       494.4    
        494.1       493.8       493.5       493.2       492.9       492.7       492.6       492.4       492.3       492.2    
        492.1       492.0       491.9       491.8       491.7       491.7       491.6       491.5       491.4       491.4    
        491.3       491.3       491.2       491.2       491.1       491.1       491.1       491.1       491.1       491.0    
        491.0       491.0       491.0       491.0       491.0       491.0       491.0       491.0       491.0       491.0    
        491.0       491.1       491.1       491.1       491.1       491.1       491.1       491.1       491.1       491.1    
        491.1       491.1       491.1       491.1       491.2       491.2       491.2       491.2       491.2       491.2    
        491.2       491.3       491.3       491.3       491.3       491.3       491.4       491.4       491.4       491.4    
        491.4       491.4       491.4       491.5       491.5       491.5       491.5       491.6       491.6       491.7    
        491.8       491.8       491.9       492.0       492.1       492.2       492.3       492.4       492.6       492.7    
        492.8       493.0       493.1       493.2       493.4       493.5       493.8       494.0       494.2       494.5    
        494.7       494.9       495.0       495.0       495.0       494.7       494.2       493.7       493.1       492.7    
        492.4       492.9       494.1       493.2       0.000    
  25    0.000       494.9       495.0       495.0       495.0       495.0       495.0       494.9       494.7       494.4    
        494.0       493.6       493.3       492.9       492.6       492.4       492.2       492.1       492.0       491.9    
        491.8       491.7       491.6       491.6       491.5       491.4       491.4       491.3       491.2       491.2    
        491.1       491.1       491.0       491.0       491.0       491.0       490.9       490.9       490.9       490.9    
        490.8       490.8       490.8       490.8       490.8       490.8       490.8       490.8       490.9       490.9    
        490.9       490.9       490.9       490.9       490.9       490.9       490.9       490.9       490.9       490.9    
        490.9       490.9       491.0       491.0       491.0       491.0       491.0       491.0       491.0       491.0    
        491.0       491.1       491.1       491.1       491.1       491.1       491.1       491.2       491.2       491.2    
        491.2       491.2       491.2       491.3       491.3       491.3       491.3       491.4       491.4       491.5    
        491.5       491.6       491.7       491.8       491.9       492.0       492.1       492.2       492.4       492.5    
        492.7       492.8       493.0       493.1       493.3       493.5       493.8       494.0       494.3       494.5    
        494.7       494.9       495.0       495.0       494.9       494.5       493.9       493.2       492.6       492.1    
        491.8       492.7       493.9       492.9       0.000    
  26    0.000       494.9       494.9       494.9       494.9       494.9       494.9       494.9       494.7       494.4    
        494.0       493.5       493.1       492.7       492.4       492.1       491.9       491.7       491.6       491.5    
        491.4       491.4       491.3       491.3       491.2       491.2       491.1       491.1       491.0       491.0    
        491.0       490.9       490.9       490.9       490.8       490.8       490.8       490.8       490.7       490.7    
        490.7       490.7       490.7       490.7       490.7       490.7       490.7       490.7       490.7       490.7    
        490.7       490.7       490.7       490.7       490.7       490.7       490.7       490.8       490.8       490.8    
        490.8       490.8       490.8       490.8       490.8       490.8       490.8       490.8       490.8       490.9    
        490.9       490.9       490.9       490.9       490.9       490.9       491.0       491.0       491.0       491.0    
        491.0       491.0       491.0       491.1       491.1       491.1       491.1       491.2       491.2       491.3    
        491.3       491.4       491.5       491.6       491.7       491.8       491.9       492.0       492.2       492.3    
        492.5       492.7       492.9       493.1       493.3       493.5       493.8       494.1       494.3       494.6    
        494.8       494.9       495.0       495.0       494.8       494.3       493.6       492.8       492.0       491.4    
        491.2       492.6       493.7       492.7       0.000    
  27    0.000       494.9       494.9       494.8       494.8       494.8       494.9       494.8       494.7       494.3    
        493.9       493.5       493.0       492.5       492.1       491.8       491.5       491.3       491.2       491.1    
        491.0       491.0       491.0       490.9       490.9       490.9       490.9       490.9       490.8       490.8    
        490.8       490.8       490.7       490.7       490.7       490.7       490.6       490.6       490.6       490.6    
        490.6       490.6       490.6       490.6       490.5       490.6       490.6       490.6       490.6       490.6    
        490.6       490.6       490.6       490.6       490.6       490.6       490.6       490.6       490.6       490.6    
        490.6       490.6       490.6       490.7       490.7       490.7       490.7       490.7       490.7       490.7    
        490.7       490.7       490.7       490.7       490.8       490.8       490.8       490.8       490.8       490.8    
        490.8       490.8       490.9       490.9       490.9       490.9       490.9       491.0       491.0       491.1    
        491.1       491.2       491.3       491.4       491.5       491.6       491.7       491.8       492.0       492.2    
        492.4       492.6       492.8       493.1       493.3       493.5       493.8       494.1       494.3       494.6    
        494.8       494.9       495.0       495.0       494.7       494.1       493.3       492.3       491.4       490.8    
        490.6       492.5       493.5       492.5       0.000    
  28    0.000       494.9       494.8       494.8       494.7       494.8       494.8       494.8       494.6       494.3    
        493.9       493.4       492.9       492.4       491.9       491.5       491.2       491.0       490.8       490.7    
        490.6       490.6       490.5       490.5       490.5       490.5       490.6       490.6       490.6       490.6    
        490.6       490.6       490.6       490.6       490.6       490.5       490.5       490.5       490.5       490.5    
        490.5       490.5       490.5       490.5       490.5       490.5       490.5       490.5       490.5       490.5    
        490.5       490.5       490.5       490.5       490.5       490.5       490.5       490.5       490.5       490.5    
        490.5       490.5       490.5       490.5       490.5       490.5       490.5       490.5       490.6       490.6    
        490.6       490.6       490.6       490.6       490.6       490.6       490.6       490.6       490.6       490.7    
        490.7       490.7       490.7       490.7       490.7       490.7       490.8       490.8       490.8       490.9    
        491.0       491.0       491.1       491.2       491.3       491.4       491.5       491.7       491.9       492.1    
        492.4       492.6       492.8       493.0       493.3       493.5       493.8       494.1       494.3       494.6    
        494.8       494.9       495.0       495.0       494.6       493.9       492.9       491.8       490.8       490.2    
        490.1       492.4       493.3       492.3       0.000    
  29    0.000       494.9       494.8       494.7       494.7       494.7       494.7       494.7       494.6       494.3    
        493.8       493.3       492.8       492.2       491.7       491.3       490.9       490.7       490.4       490.3    
        490.2       490.1       490.1       490.1       490.1       490.1       490.2       490.3       490.3       490.4    
        490.4       490.4       490.4       490.4       490.4       490.4       490.4       490.4       490.4       490.4    
        490.4       490.4       490.4       490.4       490.4       490.4       490.4       490.4       490.4       490.4    
        490.4       490.4       490.4       490.4       490.4       490.4       490.4       490.4       490.4       490.4    
        490.4       490.4       490.4       490.4       490.4       490.4       490.4       490.4       490.4       490.4    
        490.4       490.4       490.4       490.5       490.5       490.5       490.5       490.5       490.5       490.5    
        490.5       490.5       490.5       490.5       490.6       490.6       490.6       490.6       490.7       490.7    
        490.8       490.8       490.9       491.0       491.1       491.2       491.4       491.5       491.8       492.0    
        492.3       492.5       492.7       493.0       493.2       493.5       493.8       494.1       494.3       494.6    
        494.8       494.9       495.0       494.9       494.5       493.6       492.5       491.3       490.3       489.6    
        489.6       492.3       493.1       492.1       0.000    
  30    0.000       494.9       494.8       494.6       494.6       494.6       494.7       494.6       494.5       494.2    
        493.8       493.3       492.7       492.1       491.6       491.1       490.7       490.4       490.1       489.9    
        489.8       489.7       489.6       489.6       489.6       489.6       489.7       489.9       490.0       490.1    
        490.2       490.2       490.3       490.3       490.3       490.3       490.3       490.3       490.3       490.3    
        490.3       490.3       490.3       490.3       490.3       490.3       490.3       490.3       490.3       490.3    
        490.4       490.4       490.4       490.4       490.4       490.4       490.4       490.4       490.4       490.4    
        490.4       490.4       490.4       490.4       490.4       490.3       490.3       490.3       490.3       490.3    
        490.3       490.3       490.3       490.3       490.3       490.3       490.3       490.3       490.3       490.3    
        490.4       490.4       490.4       490.4       490.4       490.4       490.4       490.5       490.5       490.5    
        490.6       490.6       490.7       490.8       490.9       491.0       491.2       491.4       491.6       491.9    
        492.2       492.4       492.7       492.9       493.2       493.5       493.8       494.1       494.3       494.6    
        494.8       494.9       495.0       494.9       494.4       493.4       492.2       490.8       489.7       489.1    
        489.3       492.2       492.9       491.9       0.000    
  31    0.000       494.8       494.7       494.5       494.5       494.5       494.6       494.6       494.4       494.2    
        493.7       493.2       492.6       492.0       491.4       490.9       490.5       490.1       489.8       489.6    
        489.4       489.3       489.2       489.2       489.1       489.2       489.2       489.3       489.5       489.7    
        489.8       489.9       490.0       490.1       490.1       490.2       490.2       490.3       490.3       490.3    
        490.3       490.3       490.3       490.3       490.3       490.3       490.3       490.3       490.3       490.3    
        490.3       490.3       490.3       490.3       490.3       490.3       490.3       490.3       490.3       490.3    
        490.3       490.3       490.3       490.3       490.3       490.3       490.2       490.2       490.2       490.2    
        490.2       490.2       490.2       490.2       490.2       490.1       490.1       490.1       490.1       490.2    
        490.2       490.2       490.2       490.2       490.2       490.2       490.2       490.2       490.3       490.3    
        490.4       490.4       490.5       490.6       490.7       490.8       491.0       491.2       491.5       491.8    
        492.0       492.3       492.6       492.8       493.1       493.4       493.7       494.0       494.3       494.6    
        494.8       494.9       495.0       494.9       494.2       493.1       491.8       490.4       489.2       488.5    
        489.0       492.1       492.7       491.7       0.000    
  32    0.000       494.8       494.7       494.4       494.3       494.4       494.5       494.5       494.3       494.1    
        493.7       493.1       492.5       491.9       491.3       490.7       490.2       489.8       489.5       489.2    
        489.0       488.9       488.8       488.7       488.6       488.6       488.7       488.8       489.0       489.2    
        489.4       489.5       489.6       489.7       489.8       489.9       490.0       490.0       490.1       490.1    
        490.2       490.2       490.2       490.3       490.3       490.3       490.3       490.3       490.3       490.3    
        490.3       490.3       490.3       490.3       490.3       490.3       490.3       490.2       490.2       490.2    
        490.2       490.2       490.2       490.1       490.1       490.1       490.1       490.0       490.0       490.0    
        489.9       489.9       489.9       489.9       489.9       489.9       489.9       489.9       489.9       489.9    
        489.9       489.9       489.9       489.9       489.9       489.9       489.9       489.9       490.0       490.0    
        490.1       490.2       490.3       490.4       490.5       490.6       490.8       491.0       491.3       491.6    
        491.9       492.2       492.5       492.7       493.0       493.3       493.7       494.0       494.3       494.6    
        494.8       494.9       495.0       494.8       494.0       492.9       491.4       489.8       488.6       487.9    
        488.6       492.0       492.6       491.5       0.000    
  33    0.000       494.8       494.6       494.2       494.2       494.2       494.4       494.3       494.2       494.0    
        493.6       493.1       492.4       491.8       491.1       490.5       490.0       489.5       489.1       488.8    
        488.6       488.4       488.3       488.2       488.1       488.0       488.0       488.1       488.3       488.5    
        488.7       488.9       489.1       489.3       489.4       489.5       489.6       489.7       489.8       489.8    
        489.9       490.0       490.1       490.1       490.2       490.3       490.4       490.4       490.4       490.4    
        490.3       490.3       490.3       490.2       490.2       490.2       490.1       490.1       490.1       490.0    
        490.0       490.0       489.9       489.9       489.8       489.8       489.7       489.7       489.6       489.6    
        489.5       489.5       489.5       489.5       489.4       489.4       489.4       489.4       489.4       489.4    
        489.4       489.4       489.5       489.5       489.5       489.5       489.5       489.6       489.6       489.7    
        489.7       489.8       489.9       490.1       490.2       490.3       490.5       490.8       491.1       491.4    
        491.7       492.0       492.3       492.6       492.9       493.2       493.6       493.9       494.2       494.5    
        494.8       495.0       495.0       494.7       493.8       492.5       490.9       489.2       487.9       487.3    
        488.3       491.9       492.3       491.3       0.000    
  34    0.000       494.8       494.5       494.1       494.0       494.1       494.2       494.2       494.1       493.8    
        493.5       493.0       492.3       491.7       491.0       490.3       489.8       489.2       488.8       488.5    
        488.2       487.9       487.7       487.6       487.4       487.3       487.3       487.3       487.4       487.7    
        488.0       488.2       488.4       488.6       488.8       488.9       489.0       489.2       489.3       489.4    
        489.5       489.6       489.8       489.9       490.0       490.3       490.5       490.6       490.6       490.5    
        490.4       490.3       490.2       490.2       490.1       490.0       490.0       489.9       489.8       489.7    
        489.7       489.6       489.5       489.4       489.4       489.3       489.2       489.1       489.0       489.0    
        488.9       488.9       488.9       488.8       488.8       488.8       488.8       488.8       488.9       488.9    
        488.9       488.9       488.9       488.9       488.9       489.0       489.0       489.1       489.1       489.2    
        489.3       489.4       489.5       489.7       489.8       490.0       490.2       490.5       490.8       491.1    
        491.5       491.8       492.1       492.4       492.7       493.1       493.4       493.8       494.1       494.5    
        494.7       494.9       495.0       494.5       493.5       492.1       490.3       488.5       487.1       486.5    
        488.0       491.7       492.1       491.1       0.000    
  35    0.000       494.8       494.5       494.0       493.8       493.9       494.0       494.0       493.9       493.7    
        493.4       492.9       492.2       491.5       490.8       490.2       489.5       489.0       488.5       488.1    
        487.7       487.5       487.2       487.0       486.8       486.7       486.5       486.5       486.5       486.7    
        487.0       487.3       487.6       487.8       488.0       488.2       488.3       488.5       488.6       488.8    
        489.0       489.1       489.3       489.5       489.7       490.1       490.5       490.7       490.8       490.8    
        490.6       490.4       490.3       490.1       490.0       489.8       489.7       489.5       489.4       489.3    
        489.2       489.0       488.9       488.8       488.7       488.5       488.4       488.3       488.2       488.1    
        488.0       488.0       488.0       488.0       488.0       488.0       488.0       488.1       488.1       488.1    
        488.1       488.2       488.2       488.2       488.2       488.3       488.3       488.4       488.5       488.6    
        488.7       488.8       489.0       489.2       489.3       489.5       489.8       490.1       490.4       490.8    
        491.2       491.5       491.9       492.2       492.5       492.9       493.3       493.7       494.0       494.4    
        494.7       494.9       494.9       494.3       493.2       491.6       489.6       487.6       486.2       485.6    
        487.7       491.6       491.8       490.8       0.000    
  36    0.000       494.7       494.4       493.8       493.6       493.7       493.8       493.8       493.7       493.5    
        493.2       492.8       492.1       491.4       490.7       490.0       489.4       488.8       488.2       487.8    
        487.4       487.1       486.8       486.6       486.3       486.1       486.0       485.9       485.9       486.0    
        486.2       486.6       486.8       487.1       487.3       487.5       487.7       487.9       488.1       488.3    
        488.5       488.7       488.9       489.1       489.4       489.9       490.3       490.6       490.8       490.9    
        490.8       490.6       490.4       490.2       489.9       489.7       489.4       489.2       489.0       488.8    
        488.6       488.4       488.3       488.1       487.9       487.8       487.6       487.4       487.3       487.2    
        487.2       487.1       487.1       487.2       487.2       487.2       487.3       487.3       487.4       487.4    
        487.4       487.5       487.5       487.5       487.6       487.6       487.7       487.8       487.9       488.1    
        488.2       488.4       488.5       488.7       488.9       489.1       489.4       489.7       490.1       490.5    
        490.9       491.3       491.6       491.9       492.3       492.7       493.1       493.5       493.9       494.3    
        494.6       494.9       494.9       494.2       492.9       491.1       489.0       487.0       485.5       485.0    
        487.5       491.4       491.6       490.6       0.000    
  37    0.000       494.7       494.4       493.7       493.4       493.5       493.7       493.7       493.6       493.4    
        493.1       492.7       492.1       491.4       490.6       489.9       489.2       488.6       488.1       487.6    
        487.2       486.9       486.6       486.3       486.0       485.8       485.6       485.4       485.4       485.4    
        485.6       486.0       486.3       486.5       486.8       487.0       487.2       487.4       487.6       487.8    
        488.0       488.3       488.5       488.8       489.2       489.7       490.1       490.4       490.6       490.8    
        490.8       490.8       490.5       490.2       489.9       489.6       489.3       489.0       488.7       488.4    
        488.2       487.9       487.7       487.5       487.3       487.1       486.9       486.7       486.5       486.4    
        486.4       486.4       486.4       486.5       486.5       486.6       486.6       486.7       486.8       486.8    
        486.9       486.9       486.9       487.0       487.0       487.1       487.2       487.3       487.5       487.6    
        487.8       488.0       488.1       488.3       488.6       488.8       489.1       489.4       489.8       490.2    
        490.6       491.0       491.4       491.7       492.1       492.5       493.0       493.4       493.8       494.2    
        494.6       494.8       494.8       494.0       492.7       490.8       488.6       486.4       484.9       484.4    
        487.4       491.3       491.4       490.4       0.000    
  38    0.000       494.7       494.3       493.7       493.3       493.4       493.6       493.6       493.5       493.3    
        493.0       492.6       492.0       491.3       490.5       489.8       489.1       488.5       487.9       487.4    
        487.0       486.6       486.3       486.0       485.7       485.4       485.2       485.0       484.9       484.9    
        485.0       485.4       485.7       485.9       486.2       486.4       486.6       486.9       487.1       487.3    
        487.6       487.8       488.1       488.4       488.8       489.4       489.8       490.2       490.4       490.5    
        490.6       490.6       490.6       490.3       490.0       489.6       489.2       488.7       488.3       488.0    
        487.7       487.3       487.1       486.8       486.5       486.3       486.0       485.8       485.7       485.6    
        485.6       485.6       485.6       485.7       485.8       485.9       486.0       486.0       486.1       486.2    
        486.2       486.3       486.3       486.4       486.5       486.6       486.7       486.8       487.0       487.1    
        487.3       487.5       487.7       488.0       488.2       488.4       488.7       489.1       489.5       490.0    
        490.4       490.8       491.2       491.5       491.9       492.4       492.8       493.3       493.7       494.1    
        494.5       494.8       494.7       493.8       492.4       490.5       488.2       485.9       484.4       483.9    
        487.3       491.2       491.3       490.3       0.000    
  39    0.000       494.6       494.2       493.6       493.2       493.2       493.4       493.4       493.3       493.2    
        492.9       492.5       491.9       491.2       490.5       489.7       489.0       488.4       487.8       487.3    
        486.8       486.4       486.1       485.7       485.4       485.1       484.8       484.6       484.4       484.4    
        484.4       484.7       485.1       485.3       485.6       485.9       486.1       486.3       486.5       486.8    
        487.1       487.3       487.6       488.0       488.5       489.0       489.5       489.8       490.0       490.2    
        490.3       490.3       490.2       490.2       490.1       489.7       489.1       488.6       488.1       487.6    
        487.2       486.8       486.4       486.1       485.8       485.5       485.2       484.9       484.7       484.7    
        484.7       484.7       484.8       484.9       485.0       485.1       485.2       485.3       485.4       485.5    
        485.5       485.6       485.7       485.8       485.8       486.0       486.1       486.3       486.4       486.6    
        486.8       487.1       487.3       487.5       487.8       488.0       488.4       488.8       489.2       489.6    
        490.1       490.5       490.9       491.3       491.7       492.2       492.7       493.1       493.6       494.0    
        494.4       494.7       494.5       493.7       492.2       490.1       487.7       485.4       483.8       483.5    
        487.1       491.1       491.1       490.1       0.000    
  40    0.000       494.6       494.2       493.5       493.0       493.1       493.3       493.3       493.2       493.0    
        492.8       492.4       491.8       491.1       490.4       489.6       488.9       488.3       487.7       487.1    
        486.7       486.2       485.9       485.5       485.1       484.8       484.5       484.2       484.0       483.9    
        483.9       484.1       484.5       484.8       485.0       485.3       485.5       485.8       486.0       486.3    
        486.5       486.8       487.2       487.5       488.0       488.6       489.1       489.4       489.6       489.7    
        489.8       489.8       489.7       489.7       489.7       489.6       489.1       488.5       487.9       487.3    
        486.7       486.2       485.8       485.4       485.0       484.6       484.3       484.0       483.8       483.7    
        483.8       483.8       483.9       484.1       484.2       484.3       484.5       484.6       484.7       484.8    
        484.9       484.9       485.0       485.1       485.2       485.3       485.5       485.7       485.9       486.1    
        486.3       486.6       486.8       487.1       487.4       487.6       488.0       488.4       488.9       489.3    
        489.8       490.2       490.7       491.1       491.5       492.0       492.5       493.0       493.5       493.9    
        494.3       494.5       494.4       493.5       491.9       489.7       487.2       484.8       483.2       483.0    
        487.0       491.0       490.9       490.0       0.000    
  41    0.000       494.6       494.1       493.4       492.9       492.9       493.1       493.1       493.1       492.9    
        492.7       492.3       491.7       491.0       490.3       489.6       488.8       488.2       487.6       487.0    
        486.5       486.1       485.7       485.3       484.9       484.5       484.2       483.9       483.6       483.5    
        483.4       483.6       483.9       484.2       484.5       484.8       485.0       485.2       485.5       485.8    
        486.1       486.4       486.7       487.1       487.6       488.2       488.6       489.0       489.2       489.3    
        489.3       489.2       489.0       489.0       489.0       489.1       488.9       488.5       487.8       487.1    
        486.4       485.8       485.3       484.8       484.3       483.9       483.5       483.1       482.9       482.9    
        482.9       483.0       483.1       483.3       483.4       483.6       483.7       483.9       484.0       484.1    
        484.2       484.3       484.4       484.5       484.6       484.8       485.0       485.2       485.4       485.6    
        485.9       486.1       486.4       486.7       487.0       487.3       487.6       488.1       488.5       489.0    
        489.5       490.0       490.4       490.9       491.3       491.8       492.3       492.8       493.3       493.8    
        494.2       494.4       494.2       493.3       491.6       489.4       486.8       484.3       482.7       482.7    
        486.9       490.8       490.8       489.8       0.000    
  42    0.000       494.6       494.1       493.3       492.8       492.8       493.0       493.0       492.9       492.8    
        492.5       492.2       491.7       491.0       490.2       489.5       488.8       488.1       487.5       486.9    
        486.4       486.0       485.5       485.1       484.7       484.3       483.9       483.6       483.3       483.1    
        483.0       483.1       483.4       483.7       484.0       484.3       484.5       484.8       485.0       485.3    
        485.6       485.9       486.3       486.7       487.2       487.8       488.2       488.5       488.7       488.8    
        488.7       488.6       488.3       488.2       488.2       488.4       488.3       488.1       487.7       487.0    
        486.2       485.5       484.8       484.3       483.7       483.3       482.8       482.4       482.2       482.1    
        482.2       482.3       482.4       482.6       482.8       482.9       483.1       483.2       483.4       483.5    
        483.6       483.7       483.8       483.9       484.1       484.2       484.4       484.7       484.9       485.2    
        485.4       485.7       486.0       486.3       486.6       486.9       487.3       487.7       488.2       488.7    
        489.2       489.7       490.2       490.6       491.1       491.6       492.2       492.7       493.2       493.7    
        494.1       494.3       494.1       493.1       491.4       489.1       486.4       483.9       482.3       482.3    
        486.8       490.7       490.6       489.7       0.000    
  43    0.000       494.5       494.0       493.2       492.6       492.6       492.8       492.9       492.8       492.7    
        492.4       492.1       491.6       490.9       490.2       489.4       488.7       488.0       487.4       486.8    
        486.3       485.8       485.4       485.0       484.6       484.1       483.7       483.4       483.1       482.8    
        482.7       482.7       483.0       483.3       483.6       483.9       484.1       484.3       484.6       484.9    
        485.2       485.5       485.8       486.3       486.8       487.4       487.9       488.2       488.3       488.3    
        488.2       488.0       487.7       487.4       487.3       487.4       487.7       487.5       487.1       486.7    
        486.0       485.3       484.5       483.9       483.3       482.7       482.2       481.7       481.5       481.4    
        481.5       481.6       481.8       481.9       482.1       482.3       482.5       482.7       482.8       482.9    
        483.1       483.2       483.3       483.4       483.5       483.7       484.0       484.2       484.5       484.7    
        485.0       485.3       485.6       485.9       486.2       486.5       486.9       487.4       487.9       488.4    
        489.0       489.5       490.0       490.4       490.9       491.5       492.0       492.6       493.1       493.6    
        494.0       494.2       493.9       492.9       491.2       488.8       486.0       483.4       481.8       482.0    
        486.7       490.6       490.5       489.6       0.000    
  44    0.000       494.5       494.0       493.2       492.5       492.5       492.7       492.8       492.7       492.6    
        492.3       492.0       491.5       490.8       490.1       489.3       488.6       487.9       487.3       486.7    
        486.2       485.8       485.3       484.9       484.4       484.0       483.6       483.1       482.8       482.6    
        482.4       482.4       482.6       482.9       483.2       483.5       483.7       483.9       484.2       484.5    
        484.8       485.1       485.4       485.9       486.4       487.0       487.5       487.8       488.0       487.9    
        487.8       487.5       487.0       486.7       486.4       486.5       486.9       487.0       486.5       486.1    
        485.7       485.0       484.3       483.6       482.9       482.3       481.7       481.2       480.9       480.8    
        480.9       481.0       481.2       481.4       481.6       481.8       481.9       482.1       482.3       482.4    
        482.5       482.7       482.8       482.9       483.1       483.3       483.5       483.8       484.0       484.3    
        484.6       484.9       485.3       485.6       485.9       486.2       486.6       487.1       487.6       488.2    
        488.7       489.3       489.8       490.2       490.8       491.3       491.9       492.5       493.0       493.5    
        493.9       494.0       493.8       492.7       490.9       488.5       485.7       483.0       481.4       481.8    
        486.7       490.5       490.4       489.4       0.000    
  45    0.000       494.5       494.0       493.1       492.4       492.4       492.6       492.6       492.6       492.5    
        492.2       491.9       491.4       490.8       490.0       489.3       488.6       487.9       487.2       486.7    
        486.1       485.7       485.2       484.8       484.3       483.9       483.4       483.0       482.6       482.3    
        482.1       482.1       482.3       482.6       482.8       483.1       483.3       483.6       483.8       484.1    
        484.4       484.7       485.1       485.5       486.1       486.7       487.2       487.5       487.6       487.6    
        487.4       487.0       486.5       486.1       485.7       485.5       486.1       486.5       486.1       485.5    
        485.0       484.6       484.0       483.3       482.6       481.9       481.3       480.7       480.4       480.3    
        480.4       480.5       480.7       480.8       481.0       481.2       481.4       481.6       481.8       481.9    
        482.1       482.2       482.3       482.5       482.6       482.8       483.1       483.4       483.6       483.9    
        484.3       484.6       484.9       485.2       485.6       485.9       486.3       486.8       487.3       487.9    
        488.5       489.1       489.6       490.1       490.6       491.2       491.8       492.3       492.9       493.4    
        493.7       493.9       493.6       492.5       490.7       488.2       485.3       482.7       481.1       481.5    
        486.6       490.4       490.3       489.3       0.000    
  46    0.000       494.5       493.9       493.0       492.4       492.3       492.5       492.5       492.5       492.3    
        492.1       491.8       491.3       490.7       490.0       489.2       488.5       487.8       487.2       486.6    
        486.1       485.6       485.1       484.7       484.2       483.7       483.3       482.8       482.4       482.1    
        481.9       481.8       481.9       482.2       482.5       482.7       483.0       483.2       483.5       483.7    
        484.0       484.3       484.7       485.1       485.7       486.3       486.8       487.1       487.3       487.2    
        487.0       486.6       486.1       485.6       485.1       484.8       485.0       485.9       485.9       485.1    
        484.4       483.9       483.5       482.9       482.3       481.6       480.9       480.3       479.9       479.8    
        479.9       480.0       480.2       480.3       480.5       480.7       480.9       481.1       481.3       481.5    
        481.6       481.7       481.9       482.0       482.2       482.4       482.6       482.9       483.2       483.5    
        483.9       484.2       484.6       484.9       485.2       485.5       486.0       486.5       487.0       487.6    
        488.2       488.8       489.4       489.9       490.4       491.0       491.6       492.2       492.8       493.3    
        493.6       493.8       493.5       492.3       490.5       488.0       485.0       482.3       480.7       481.3    
        486.5       490.3       490.1       489.2       0.000    
  47    0.000       494.4       493.9       493.0       492.3       492.1       492.3       492.4       492.4       492.2    
        492.0       491.7       491.3       490.6       489.9       489.2       488.4       487.7       487.1       486.5    
        486.0       485.5       485.1       484.6       484.1       483.6       483.1       482.7       482.2       481.9    
        481.7       481.5       481.6       481.9       482.1       482.4       482.6       482.8       483.1       483.4    
        483.7       484.0       484.3       484.7       485.3       485.9       486.5       486.8       486.9       486.9    
        486.6       486.2       485.6       485.1       484.7       484.2       484.1       485.3       485.7       485.0    
        484.0       483.2       482.7       482.3       481.8       481.2       480.5       479.9       479.5       479.4    
        479.4       479.5       479.7       479.9       480.1       480.3       480.5       480.7       480.8       481.0    
        481.1       481.3       481.4       481.6       481.7       481.9       482.2       482.5       482.8       483.1    
        483.5       483.8       484.2       484.5       484.9       485.2       485.6       486.1       486.7       487.4    
        488.0       488.6       489.1       489.7       490.3       490.9       491.5       492.1       492.6       493.1    
        493.5       493.6       493.3       492.1       490.3       487.7       484.7       481.9       480.3       481.1    
        486.4       490.2       490.0       489.1       0.000    
  48    0.000       494.4       493.8       492.9       492.2       492.0       492.2       492.3       492.2       492.1    
        491.9       491.6       491.2       490.6       489.8       489.1       488.4       487.7       487.0       486.5    
        485.9       485.4       485.0       484.5       484.0       483.5       483.0       482.5       482.1       481.7    
        481.4       481.3       481.3       481.5       481.8       482.0       482.3       482.5       482.7       483.0    
        483.3       483.6       483.9       484.4       484.9       485.6       486.1       486.5       486.6       486.5    
        486.2       485.8       485.2       484.8       484.3       483.9       483.7       484.6       485.4       485.4    
        484.0       482.8       482.0       481.5       481.2       480.7       480.1       479.5       479.0       478.9    
        478.9       479.1       479.2       479.4       479.6       479.8       480.0       480.2       480.4       480.5    
[...]
        442.9       442.8       442.6       442.5       442.3       442.2       442.0       441.9       441.7       441.6    
        441.5       441.4       441.3       441.1       441.0       440.8       440.5       440.2       439.8       439.4    
        439.0       438.5       437.9       437.2       436.5       436.3       436.5       437.4       438.4       439.5    
        440.6       441.3       441.7       441.8       441.9       441.7       441.5       441.1       440.7       440.0    
        440.0       440.0       440.0       440.0       440.0       440.0       440.0       440.1       440.8       442.3    
        443.8       445.3       446.9       449.3       0.000    
 121    0.000       454.7       453.0       451.4       449.9       448.7       447.8       447.0       446.5       446.1    
        445.9       445.7       445.5       445.4       445.4       445.5       445.5       445.5       445.6       445.6    
        445.6       445.6       445.6       445.6       445.5       445.4       445.3       445.2       445.2       445.1    
        445.1       445.0       445.0       445.0       445.0       445.0       445.0       445.0       445.0       445.0    
        444.9       444.7       444.6       444.4       444.2       444.0       443.8       443.7       443.5       443.3    
        443.2       443.0       442.9       442.8       442.6       442.5       442.3       442.2       442.0       441.9    
        441.7       441.6       441.4       441.3       441.1       441.0       440.8       440.6       440.3       440.1    
        439.8       439.5       439.2       438.9       438.6       438.3       438.0       437.8       437.5       437.3    
        437.0       436.8       436.6       436.4       436.1       435.8       435.5       435.2       434.8       434.5    
        434.1       433.7       433.4       433.1       433.0       433.1       433.6       434.6       435.6       436.9    
        438.3       439.1       439.6       439.8       439.9       439.9       439.8       439.9       439.9       440.0    
        440.0       440.0       440.0       440.0       440.0       440.0       440.0       440.0       440.8       442.1    
        443.6       445.0       446.5       448.9       0.000    
 122    0.000       453.9       452.3       450.8       449.4       448.3       447.4       446.7       446.2       445.8    
        445.5       445.4       445.3       445.2       445.2       445.2       445.2       445.2       445.2       445.2    
        445.2       445.2       445.1       445.1       445.0       444.9       444.8       444.8       444.7       444.6    
        444.5       444.5       444.3       444.1       444.0       443.8       443.7       443.6       443.5       443.4    
        443.3       443.2       442.9       442.3       441.6       440.7       439.9       439.2       438.6       438.1    
        437.7       437.4       437.1       436.8       436.7       436.6       436.5       436.4       436.3       436.2    
        436.1       436.0       435.9       435.8       435.7       435.6       435.5       435.3       435.2       435.0    
        434.9       434.7       434.6       434.4       434.2       434.1       433.9       433.7       433.6       433.5    
        433.4       433.2       433.1       433.0       432.9       432.7       432.4       432.2       431.9       431.6    
        431.4       431.1       430.9       430.8       430.8       431.1       431.8       433.4       435.1       436.5    
        437.6       438.3       438.7       439.1       439.4       439.6       439.8       439.9       439.9       440.0    
        440.0       440.0       440.0       440.0       440.1       440.1       440.1       440.1       440.7       442.0    
        443.4       444.8       446.1       448.5       0.000    
 123    0.000       453.0       451.6       450.2       448.9       447.9       447.1       446.5       446.0       445.6    
        445.4       445.2       445.1       445.0       445.0       445.0       445.0       445.0       445.0       444.9    
        444.9       444.8       444.8       444.7       444.5       444.3       444.1       443.7       443.3       442.8    
        442.4       441.9       441.5       441.1       440.8       440.6       440.3       440.1       440.0       439.9    
        439.8       439.7       439.4       439.0       438.4       437.6       436.7       436.0       435.8       435.5    
        435.3       435.1       434.9       434.7       434.6       434.4       434.2       434.1       433.9       433.8    
        433.7       433.6       433.5       433.4       433.3       433.2       433.2       433.1       433.1       433.1    
        433.0       433.0       432.9       432.9       432.8       432.7       432.7       432.6       432.5       432.4    
        432.4       432.3       432.2       432.1       432.0       431.9       431.7       431.5       431.3       431.0    
        430.7       430.5       430.3       430.2       430.2       430.7       431.8       433.8       435.7       437.1    
        438.0       438.7       439.1       439.4       439.6       439.8       439.9       439.9       440.0       440.0    
        440.1       440.1       440.2       440.2       440.3       440.4       440.5       440.2       440.8       441.9    
        443.2       444.5       445.8       448.2       0.000    
 124    0.000       452.2       450.9       449.6       448.5       447.6       446.8       446.3       445.8       445.5    
        445.3       445.1       445.0       445.0       445.0       445.0       444.9       444.9       444.8       444.6    
        444.5       444.3       444.1       443.8       443.4       442.9       442.3       441.6       441.0       440.4    
        439.8       439.3       438.8       438.5       438.1       437.9       437.6       437.4       437.3       437.1    
        437.0       436.9       436.8       436.5       436.2       435.8       435.4       435.3       435.1       435.0    
        434.8       434.7       434.6       434.5       434.4       434.3       434.2       434.1       434.0       433.9    
        433.9       433.8       433.8       433.7       433.7       433.7       433.6       433.6       433.6       433.6    
        433.5       433.5       433.5       433.5       433.5       433.5       433.5       433.4       433.4       433.4    
        433.4       433.4       433.4       433.4       433.4       433.4       433.4       433.5       433.5       433.6    
        433.6       433.8       433.9       434.1       434.2       434.4       434.6       435.5       437.0       438.3    
        439.0       439.4       439.7       439.8       439.9       439.9       440.0       440.0       440.1       440.2    
        440.3       440.5       440.6       440.8       441.0       441.3       440.9       440.4       440.9       441.9    
        443.1       444.3       445.5       447.8       0.000    
 125    0.000       451.5       450.2       449.1       448.1       447.3       446.6       446.1       445.7       445.5    
        445.3       445.1       445.1       445.0       445.0       445.0       445.0       444.9       444.8       444.6    
        444.3       444.1       443.7       443.3       442.8       442.3       441.6       440.9       440.2       439.6    
        439.0       438.5       438.1       437.8       437.5       437.3       437.1       437.0       436.9       436.8    
        436.7       436.6       436.4       436.4       436.4       436.4       436.4       436.4       436.3       436.3    
        436.2       436.2       436.1       436.1       436.0       436.0       435.9       435.9       435.8       435.8    
        435.8       435.7       435.7       435.7       435.6       435.6       435.6       435.6       435.6       435.6    
        435.6       435.6       435.6       435.6       435.7       435.7       435.8       435.8       435.9       435.9    
        436.0       436.0       436.1       436.1       436.2       436.3       436.4       436.6       436.8       437.0    
        437.3       437.6       437.9       438.2       438.4       438.6       438.9       439.2       439.4       439.6    
        439.9       440.0       440.0       440.0       440.1       440.1       440.2       440.4       440.5       440.7    
        441.0       441.3       441.6       441.9       442.3       442.3       441.5       440.8       441.1       441.9    
        443.0       444.1       445.2       447.6       0.000    
 126    0.000       450.8       449.7       448.7       447.8       447.0       446.5       446.0       445.7       445.5    
        445.3       445.2       445.1       445.1       445.0       445.0       445.0       445.0       445.0       445.0    
        444.8       444.6       444.4       444.1       443.7       443.2       442.6       442.0       441.3       440.7    
        440.1       439.5       439.1       438.6       438.2       437.8       437.5       437.5       437.6       437.7    
        437.9       438.1       438.3       438.4       438.5       438.5       438.5       438.5       438.5       438.5    
        438.5       438.4       438.4       438.4       438.4       438.4       438.4       438.3       438.3       438.3    
        438.3       438.3       438.4       438.4       438.4       438.4       438.4       438.5       438.5       438.6    
        438.6       438.7       438.8       438.9       438.9       439.0       439.1       439.2       439.2       439.3    
        439.3       439.4       439.4       439.5       439.5       439.6       439.7       439.8       439.9       440.0    
        440.1       440.1       440.2       440.2       440.2       440.2       440.2       440.2       440.2       440.2    
        440.2       440.3       440.4       440.5       440.6       440.7       440.9       441.2       441.5       441.9    
        442.3       442.8       443.3       443.8       444.4       443.5       442.3       441.3       441.4       442.1    
        443.0       444.0       445.1       447.3       0.000    
 127    0.000       450.2       449.3       448.4       447.6       447.0       446.5       446.1       445.8       445.6    
        445.4       445.3       445.2       445.2       445.1       445.1       445.0       445.0       445.0       445.0    
        445.0       445.0       445.0       444.9       444.8       444.6       444.3       443.9       443.4       442.7    
        441.9       441.1       440.2       439.6       439.6       439.6       439.7       439.7       439.7       439.8    
        439.8       439.8       439.9       439.9       439.9       439.9       440.0       440.0       440.1       440.2    
        440.2       440.3       440.3       440.4       440.4       440.5       440.6       440.6       440.7       440.7    
        440.8       440.9       440.9       441.0       441.1       441.1       441.2       441.3       441.4       441.4    
        441.5       441.6       441.6       441.6       441.6       441.7       441.7       441.7       441.7       441.7    
        441.7       441.6       441.6       441.6       441.6       441.6       441.6       441.6       441.5       441.5    
        441.4       441.4       441.3       441.3       441.3       441.2       441.2       441.2       441.2       441.2    
        441.3       441.5       441.7       441.8       442.1       442.3       442.7       443.0       443.5       444.2    
        445.6       447.1       448.4       449.4       448.7       446.2       443.4       442.1       441.9       442.4    
        443.1       444.0       445.1       447.2       0.000    
 128    0.000       450.0       449.3       448.5       447.9       447.4       446.9       446.5       446.3       446.0    
        445.9       445.7       445.6       445.5       445.5       445.4       445.4       445.4       445.3       445.3    
        445.3       445.3       445.3       445.2       445.2       445.2       445.2       445.3       445.4       445.4    
        445.3       445.3       445.1       444.9       444.7       444.4       444.1       443.8       443.5       443.2    
        442.8       442.5       442.2       441.9       441.9       441.9       441.9       441.9       442.0       442.1    
        442.5       442.8       443.1       443.4       443.6       443.9       444.2       444.4       444.7       444.9    
        445.0       445.1       445.2       445.2       445.3       445.3       445.3       445.3       445.3       445.3    
        445.3       445.3       445.3       445.2       445.2       445.2       445.1       445.1       445.1       445.0    
        445.0       445.0       444.9       444.9       444.9       444.8       444.8       444.7       444.6       444.5    
        444.4       444.3       444.2       444.1       444.0       443.9       443.9       443.8       443.9       444.0    
        444.2       444.5       444.9       445.3       445.9       446.6       447.4       448.4       449.6       450.9    
        452.3       453.7       454.8       454.9       453.0       450.0       446.3       443.1       442.6       442.8    
        443.3       444.0       445.2       447.2       0.000    
 129    0.000       450.4       449.8       449.2       448.6       448.1       447.7       447.4       447.1       446.9    
        446.7       446.6       446.5       446.4       446.3       446.2       446.2       446.2       446.1       446.1    
        446.1       446.1       446.1       446.1       446.1       446.1       446.1       446.1       446.1       446.2    
        446.3       446.4       446.5       446.6       446.6       446.7       446.8       446.8       446.9       447.0    
        447.1       447.1       447.2       447.3       447.3       447.4       447.4       447.5       447.5       447.5    
        447.5       447.6       447.6       447.6       447.6       447.6       447.6       447.6       447.6       447.6    
        447.6       447.6       447.6       447.6       447.6       447.6       447.6       447.6       447.6       447.6    
        447.6       447.6       447.6       447.7       447.7       447.8       447.9       448.0       448.1       448.1    
        448.2       448.3       448.3       448.4       448.5       448.6       448.7       448.9       449.0       449.2    
        449.5       449.7       450.0       450.2       450.5       450.8       451.1       451.6       452.0       452.3    
        452.7       453.0       453.2       453.6       454.0       454.5       455.1       455.8       456.7       457.7    
        458.8       459.8       460.4       459.4       457.2       454.1       450.3       445.8       443.6       443.4    
        443.6       444.1       445.5       447.2       0.000    
 130    0.000       451.1       450.6       450.1       449.6       449.2       448.8       448.5       448.3       448.1    
        447.9       447.8       447.6       447.5       447.5       447.4       447.4       447.3       447.3       447.3    
        447.3       447.2       447.2       447.2       447.2       447.3       447.3       447.3       447.3       447.4    
        447.4       447.5       447.6       447.7       447.7       447.8       447.9       448.0       448.0       448.1    
        448.2       448.3       448.4       448.5       448.6       448.7       448.7       448.8       448.9       449.0    
        449.0       449.1       449.1       449.2       449.2       449.3       449.3       449.4       449.4       449.5    
        449.6       449.6       449.7       449.7       449.8       449.9       449.9       450.0       450.1       450.2    
        450.3       450.4       450.5       450.6       450.7       450.8       450.9       451.0       451.1       451.2    
        451.3       451.3       451.4       451.5       451.6       451.7       451.9       452.0       452.3       452.5    
        452.8       453.0       453.4       453.7       454.0       454.3       454.6       455.2       456.0       457.2    
        458.3       459.0       459.6       460.2       460.7       461.2       461.7       462.1       462.5       463.0    
        463.5       464.1       464.1       462.9       461.0       458.3       454.7       450.1       446.0       444.3    
        444.1       444.7       445.9       447.4       0.000    
 131    0.000       0.000       0.000       0.000       0.000       0.000       0.000       0.000       0.000       0.000    
        0.000       0.000       0.000       0.000       0.000       0.000       0.000       0.000       0.000       0.000    
        0.000       0.000       0.000       0.000       0.000       0.000       0.000       0.000       0.000       0.000    
        0.000       0.000       0.000       0.000       0.000       0.000       0.000       0.000       0.000       0.000    
        0.000       0.000       0.000       0.000       0.000       0.000       0.000       0.000       0.000       0.000    
        0.000       0.000       0.000       0.000       0.000       0.000       0.000       0.000       0.000       0.000    
        0.000       0.000       0.000       0.000       0.000       0.000       0.000       0.000       0.000       0.000    
        0.000       0.000       0.000       0.000       0.000       0.000       0.000       0.000       0.000       0.000    
        0.000       0.000       0.000       0.000       0.000       0.000       0.000       0.000       0.000       0.000    
        0.000       0.000       0.000       0.000       0.000       0.000       0.000       0.000       0.000       0.000    
        0.000       0.000       0.000       0.000       0.000       0.000       0.000       0.000       0.000       0.000    
        0.000       0.000       0.000       0.000       0.000       0.000       0.000       0.000       0.000       0.000    
        0.000       0.000       0.000       0.000       0.000    
 132    0.000       0.000       0.000       0.000       0.000       0.000       0.000       0.000       0.000       0.000    
        0.000       0.000       0.000       0.000       0.000       0.000       0.000       0.000       0.000       0.000    
        0.000       0.000       0.000       0.000       0.000       0.000       0.000       0.000       0.000       0.000    
        0.000       0.000       0.000       0.000       0.000       0.000       0.000       0.000       0.000       0.000    
        0.000       0.000       0.000       0.000       0.000       0.000       0.000       0.000       0.000       0.000    
        0.000       0.000       0.000       0.000       0.000       0.000       0.000       0.000       0.000       0.000    
        0.000       0.000       0.000       0.000       0.000       0.000       0.000       0.000       0.000       0.000    
        0.000       0.000       0.000       0.000       0.000       0.000       0.000       0.000       0.000       0.000    
        0.000       0.000       0.000       0.000       0.000       0.000       0.000       0.000       0.000       0.000    
        0.000       0.000       0.000       0.000       0.000       0.000       0.000       0.000       0.000       0.000    
        0.000       0.000       0.000       0.000       0.000       0.000       0.000       0.000       0.000       0.000    
        0.000       0.000       0.000       0.000       0.000       0.000       0.000       0.000       0.000       0.000    
        0.000       0.000       0.000       0.000       0.000    



             MODEL LAYER BOTTOM EL. FOR LAYER   4
 READING ON UNIT   14 WITH FORMAT: (10F13.0)           
