                                  MODFLOW-2000
      U.S. GEOLOGICAL SURVEY MODULAR FINITE-DIFFERENCE GROUND-WATER FLOW MODEL
                             VERSION 1.10 07/26/2002


 This model run combines GLOBAL and LIST output into this single file.

 GLOBAL LISTING FILE: optdemo_coarse.lst
                         UNIT   26

 OPENING TEST_coarse.ba6
 FILE TYPE:BAS6   UNIT    1   STATUS:OLD    
 FORMAT:FORMATTED              ACCESS:SEQUENTIAL          

 OPENING TEST_coarse.bc6
 FILE TYPE:BCF6   UNIT   11   STATUS:OLD    
 FORMAT:FORMATTED              ACCESS:SEQUENTIAL          

 OPENING optdemo_coarse.oc
 FILE TYPE:OC   UNIT   10   STATUS:OLD    
 FORMAT:FORMATTED              ACCESS:SEQUENTIAL          

 OPENING optdemo_coarse.ufh
 FILE TYPE:DATA(BINARY)   UNIT   30   STATUS:UNKNOWN
 FORMAT:UNFORMATTED            ACCESS:SEQUENTIAL          

 OPENING optdemo_coarse.ccf
 FILE TYPE:DATA(BINARY)   UNIT   40   STATUS:UNKNOWN
 FORMAT:UNFORMATTED            ACCESS:SEQUENTIAL          

 OPENING head2002_coarse.ufh
 FILE TYPE:DATA(BINARY)   UNIT   51   STATUS:UNKNOWN
 FORMAT:UNFORMATTED            ACCESS:SEQUENTIAL          

 OPENING optdemo_coarse.pcg
 FILE TYPE:PCG   UNIT   12   STATUS:OLD    
 FORMAT:FORMATTED              ACCESS:SEQUENTIAL          

 OPENING optdemo.wel
 FILE TYPE:WEL   UNIT   13   STATUS:OLD    
 FORMAT:FORMATTED              ACCESS:SEQUENTIAL          

 OPENING optdemo_coarse.rch
 FILE TYPE:RCH   UNIT   20   STATUS:OLD    
 FORMAT:FORMATTED              ACCESS:SEQUENTIAL          

 OPENING optdemo_coarse.lmt
 FILE TYPE:LMT6   UNIT   29   STATUS:OLD    
 FORMAT:FORMATTED              ACCESS:SEQUENTIAL          

 OPENING TEST_coarse.dis
 FILE TYPE:DIS   UNIT   14   STATUS:OLD    
 FORMAT:FORMATTED              ACCESS:SEQUENTIAL          

 THE FREE FORMAT OPTION HAS BEEN SELECTED

 DISCRETIZATION INPUT DATA READ FROM UNIT   14
    5 LAYERS        66 ROWS        64 COLUMNS
    1 STRESS PERIOD(S) IN SIMULATION
 MODEL TIME UNIT IS YEARS
 MODEL LENGTH UNIT IS UNDEFINED
 THE GROUND-WATER TRANSPORT PROCESS IS INACTIVE

 THE OBSERVATION PROCESS IS INACTIVE
 THE SENSITIVITY PROCESS IS INACTIVE
 THE PARAMETER-ESTIMATION PROCESS IS INACTIVE

 MODE: FORWARD

  Confining bed flag for each layer:
   0   0   0   0   0

     190210  ELEMENTS OF GX ARRAY USED OUT OF     190210
      21120  ELEMENTS OF GZ ARRAY USED OUT OF      21120
      21120  ELEMENTS OF IG ARRAY USED OUT OF      21120



                               DELR
 READING ON UNIT   14 WITH FORMAT: (10F13.0)           



                               DELC
 READING ON UNIT   14 WITH FORMAT: (10F13.0)           

 TOP ELEVATION OF LAYER 1 =   999.000    



             MODEL LAYER BOTTOM EL. FOR LAYER   1
 READING ON UNIT   14 WITH FORMAT: (10F13.0)           

            1           2           3           4           5           6           7           8           9          10
           11          12          13          14          15          16          17          18          19          20
           21          22          23          24          25          26          27          28          29          30
           31          32          33          34          35          36          37          38          39          40
           41          42          43          44          45          46          47          48          49          50
           51          52          53          54          55          56          57          58          59          60
           61          62          63          64
 ........................................................................................................................
   1    0.000       0.000       0.000       0.000       0.000       0.000       0.000       0.000       0.000       0.000    
        0.000       0.000       0.000       0.000       0.000       0.000       0.000       0.000       0.000       0.000    
        0.000       0.000       0.000       0.000       0.000       0.000       0.000       0.000       0.000       0.000    
        0.000       0.000       0.000       0.000       0.000       0.000       0.000       0.000       0.000       0.000    
        0.000       0.000       0.000       0.000       0.000       0.000       0.000       0.000       0.000       0.000    
        0.000       0.000       0.000       0.000       0.000       0.000       0.000       0.000       0.000       0.000    
        0.000       0.000       0.000       0.000    
   2    0.000       489.2       488.7       488.5       488.5       488.5       488.5       488.5       488.5       488.5    
        488.5       488.5       488.4       488.4       488.4       488.3       488.3       488.3       488.3       488.2    
        488.2       488.2       488.2       488.2       488.2       488.1       488.1       488.1       488.1       488.1    
        488.1       488.1       488.1       488.1       488.1       488.1       488.1       488.0       488.0       488.0    
        488.0       488.0       488.0       488.0       488.0       488.0       487.9       487.9       487.9       487.8    
        487.8       487.8       487.7       487.7       487.6       487.6       487.5       487.4       487.2       486.9    
        486.6       486.0       485.6       0.000    
   3    0.000       491.1       491.0       490.8       490.7       490.7       490.7       490.7       490.6       490.6    
        490.6       490.6       490.6       490.5       490.5       490.5       490.5       490.4       490.4       490.4    
        490.4       490.4       490.4       490.4       490.4       490.4       490.4       490.4       490.4       490.4    
        490.4       490.4       490.4       490.4       490.4       490.4       490.4       490.4       490.4       490.4    
        490.4       490.4       490.4       490.4       490.4       490.4       490.4       490.4       490.4       490.4    
        490.4       490.4       490.4       490.3       490.3       490.3       490.2       490.2       490.0       489.8    
        489.4       488.6       488.2       0.000    
   4    0.000       492.7       492.7       492.6       492.5       492.4       492.4       492.3       492.3       492.2    
        492.2       492.1       492.1       492.1       492.0       492.0       492.0       492.0       492.0       492.0    
        492.0       492.0       492.0       492.0       492.0       492.0       492.0       492.0       492.0       492.0    
        492.0       492.0       492.1       492.1       492.1       492.1       492.1       492.1       492.1       492.1    
        492.1       492.1       492.1       492.1       492.1       492.2       492.2       492.2       492.2       492.2    
        492.3       492.3       492.3       492.3       492.4       492.4       492.4       492.4       492.3       492.1    
        491.7       491.0       490.6       0.000    
   5    0.000       493.6       493.8       493.8       493.7       493.6       493.4       493.3       493.2       493.1    
        493.1       493.0       493.0       492.9       492.9       492.9       492.9       492.9       492.9       492.9    
        492.9       492.9       492.9       492.9       492.9       492.9       493.0       493.0       493.0       493.0    
        493.0       493.0       493.0       493.0       493.0       493.0       493.0       493.0       493.1       493.1    
        493.1       493.1       493.1       493.1       493.2       493.2       493.2       493.3       493.3       493.4    
        493.4       493.5       493.5       493.5       493.6       493.7       493.7       493.7       493.7       493.6    
        493.2       492.7       492.5       0.000    
   6    0.000       494.2       494.4       494.5       494.4       494.2       494.1       493.9       493.7       493.6    
        493.5       493.4       493.3       493.3       493.2       493.2       493.2       493.2       493.2       493.3    
        493.3       493.3       493.3       493.3       493.3       493.3       493.4       493.4       493.4       493.4    
        493.4       493.4       493.4       493.4       493.4       493.5       493.5       493.5       493.5       493.5    
        493.5       493.6       493.6       493.6       493.6       493.7       493.7       493.8       493.8       493.9    
        494.0       494.1       494.1       494.2       494.3       494.3       494.4       494.5       494.5       494.4    
        494.1       493.9       493.8       0.000    
   7    0.000       494.6       494.7       494.8       494.8       494.6       494.3       494.1       493.8       493.7    
        493.5       493.4       493.3       493.3       493.2       493.2       493.1       493.1       493.1       493.1    
        493.1       493.2       493.2       493.2       493.2       493.3       493.3       493.3       493.3       493.3    
        493.3       493.4       493.4       493.4       493.4       493.5       493.5       493.5       493.6       493.6    
        493.6       493.6       493.7       493.7       493.8       493.8       493.9       494.0       494.0       494.1    
        494.2       494.3       494.4       494.5       494.6       494.7       494.8       494.8       494.9       494.8    
        494.7       494.6       494.6       0.000    
   8    0.000       494.8       494.9       495.0       494.9       494.7       494.4       494.1       493.8       493.6    
        493.4       493.3       493.2       493.1       493.0       492.9       492.8       492.8       492.8       492.8    
        492.8       492.8       492.8       492.9       492.9       492.9       492.9       492.9       493.0       493.0    
        493.0       493.0       493.0       493.1       493.1       493.1       493.2       493.2       493.3       493.3    
        493.3       493.3       493.4       493.4       493.5       493.6       493.7       493.8       493.9       494.1    
        494.2       494.3       494.4       494.6       494.7       494.8       494.9       495.0       495.0       495.0    
        494.9       494.9       494.9       0.000    
   9    0.000       494.9       495.0       495.0       495.0       494.7       494.4       494.0       493.7       493.4    
        493.2       493.1       492.9       492.7       492.6       492.5       492.5       492.4       492.4       492.4    
        492.4       492.4       492.4       492.4       492.4       492.5       492.5       492.5       492.5       492.5    
        492.5       492.6       492.6       492.6       492.6       492.7       492.7       492.8       492.8       492.8    
        492.9       492.9       492.9       493.0       493.1       493.2       493.3       493.4       493.6       493.8    
        493.9       494.1       494.2       494.4       494.6       494.7       494.9       495.0       495.0       495.0    
        495.0       495.0       494.7       0.000    
  10    0.000       495.0       495.0       495.0       494.9       494.6       494.2       493.8       493.4       493.2    
        492.9       492.7       492.6       492.4       492.2       492.1       492.0       492.0       491.9       491.9    
        491.9       491.9       491.9       491.9       491.9       491.9       492.0       492.0       492.0       492.0    
        492.0       492.1       492.1       492.1       492.1       492.2       492.2       492.3       492.3       492.3    
        492.4       492.4       492.4       492.5       492.6       492.7       492.8       493.0       493.2       493.4    
        493.6       493.8       493.9       494.1       494.4       494.6       494.9       495.0       494.9       494.7    
        494.5       494.8       494.2       0.000    
  11    0.000       495.0       495.0       495.0       494.8       494.3       493.9       493.5       493.1       492.8    
        492.6       492.4       492.2       492.0       491.8       491.7       491.6       491.5       491.5       491.4    
        491.4       491.4       491.4       491.4       491.4       491.5       491.5       491.5       491.5       491.5    
        491.6       491.6       491.6       491.6       491.6       491.7       491.7       491.8       491.8       491.8    
        491.9       491.9       491.9       492.0       492.1       492.2       492.4       492.5       492.7       493.0    
        493.2       493.4       493.6       493.9       494.2       494.6       494.9       495.0       494.7       494.1    
        493.6       494.5       493.7       0.000    
  12    0.000       495.0       495.0       495.0       494.7       494.1       493.5       492.9       492.6       492.3    
        492.1       491.9       491.7       491.6       491.4       491.3       491.2       491.1       491.1       491.1    
        491.0       491.0       491.0       491.0       491.0       491.0       491.1       491.1       491.1       491.1    
        491.1       491.1       491.2       491.2       491.2       491.2       491.3       491.3       491.4       491.4    
        491.4       491.4       491.5       491.5       491.6       491.8       491.9       492.1       492.3       492.6    
        492.8       493.1       493.4       493.8       494.2       494.7       495.0       495.0       494.2       493.1    
        492.4       494.1       493.2       0.000    
  13    0.000       494.9       494.9       494.9       494.7       494.0       493.1       492.4       491.9       491.6    
        491.4       491.3       491.2       491.1       491.0       491.0       490.9       490.8       490.8       490.7    
        490.7       490.7       490.7       490.7       490.7       490.7       490.7       490.7       490.7       490.8    
        490.8       490.8       490.8       490.8       490.8       490.9       490.9       490.9       491.0       491.0    
        491.0       491.0       491.1       491.1       491.2       491.3       491.5       491.7       491.9       492.2    
        492.5       492.9       493.3       493.8       494.3       494.8       495.0       494.8       493.6       492.0    
        491.2       493.7       492.7       0.000    
  14    0.000       494.8       494.7       494.8       494.6       493.9       492.9       491.9       491.2       490.8    
        490.6       490.5       490.5       490.6       490.6       490.6       490.6       490.6       490.5       490.5    
        490.5       490.5       490.5       490.5       490.5       490.5       490.5       490.5       490.5       490.5    
        490.5       490.5       490.5       490.5       490.6       490.6       490.6       490.6       490.6       490.6    
        490.7       490.7       490.7       490.8       490.8       491.0       491.1       491.3       491.5       491.9    
        492.4       492.8       493.3       493.8       494.3       494.8       495.0       494.6       492.9       490.8    
        490.1       493.3       492.3       0.000    
  15    0.000       494.8       494.6       494.7       494.5       493.8       492.7       491.6       490.7       490.1    
        489.8       489.6       489.6       489.7       490.0       490.2       490.3       490.3       490.3       490.3    
        490.3       490.3       490.3       490.3       490.3       490.4       490.4       490.4       490.4       490.4    
        490.4       490.4       490.4       490.3       490.3       490.3       490.3       490.3       490.3       490.3    
        490.4       490.4       490.4       490.4       490.5       490.6       490.7       490.9       491.2       491.6    
        492.2       492.7       493.2       493.8       494.3       494.8       495.0       494.4       492.2       489.7    
        489.3       492.9       491.9       0.000    
  16    0.000       494.7       494.3       494.5       494.3       493.7       492.5       491.3       490.2       489.5    
        489.0       488.8       488.6       488.7       489.0       489.4       489.6       489.8       490.0       490.1    
        490.2       490.2       490.3       490.3       490.3       490.3       490.3       490.3       490.3       490.2    
        490.2       490.2       490.1       490.1       490.0       489.9       489.9       489.9       489.9       489.9    
        489.9       489.9       489.9       489.9       490.0       490.1       490.3       490.5       490.8       491.3    
        491.9       492.5       493.0       493.7       494.3       494.8       495.0       494.0       491.4       488.6    
        488.6       492.6       491.5       0.000    
  17    0.000       494.5       494.0       494.2       494.1       493.5       492.3       491.0       489.8       488.8    
        488.2       487.7       487.4       487.3       487.4       488.0       488.4       488.8       489.0       489.3    
        489.5       489.8       490.0       490.5       490.6       490.4       490.2       490.1       490.0       489.8    
        489.7       489.5       489.4       489.2       489.0       488.9       488.9       488.8       488.8       488.9    
        488.9       488.9       488.9       489.0       489.1       489.3       489.5       489.8       490.2       490.8    
        491.5       492.1       492.7       493.4       494.1       494.7       495.0       493.5       490.3       487.1    
        488.0       492.1       491.1       0.000    
  18    0.000       494.4       493.6       493.8       493.7       493.2       492.1       490.7       489.4       488.2    
        487.4       486.8       486.3       486.0       485.9       486.2       486.8       487.3       487.7       488.1    
        488.5       488.9       489.4       490.3       490.8       490.8       490.4       489.9       489.4       489.0    
        488.6       488.3       487.9       487.6       487.3       487.2       487.1       487.2       487.3       487.4    
        487.4       487.5       487.6       487.7       487.9       488.2       488.5       488.9       489.4       490.1    
        490.9       491.6       492.3       493.1       493.9       494.6       494.9       492.9       489.0       485.5    
        487.5       491.6       490.6       0.000    
  19    0.000       494.3       493.3       493.6       493.5       493.0       492.0       490.5       489.1       487.9    
        487.0       486.3       485.7       485.2       484.9       485.0       485.7       486.2       486.6       487.1    
        487.6       488.1       488.8       489.8       490.4       490.6       490.6       490.0       489.2       488.3    
        487.7       487.1       486.5       486.0       485.7       485.6       485.6       485.8       486.0       486.1    
        486.2       486.3       486.5       486.7       487.0       487.3       487.7       488.2       488.7       489.5    
        490.4       491.2       491.9       492.8       493.7       494.5       494.7       492.4       488.2       484.4    
        487.3       491.3       490.3       0.000    
  20    0.000       494.2       493.0       493.3       493.2       492.8       491.8       490.4       488.9       487.7    
        486.7       485.9       485.1       484.5       484.0       483.9       484.5       485.0       485.5       486.0    
        486.5       487.2       488.0       489.1       489.6       489.8       489.7       489.7       489.1       487.9    
        486.7       485.8       485.0       484.3       483.8       483.8       483.9       484.2       484.5       484.7    
        484.9       485.0       485.2       485.5       485.9       486.3       486.8       487.4       488.0       488.9    
        489.8       490.7       491.5       492.5       493.5       494.3       494.4       491.9       487.2       483.2    
        487.0       490.9       490.0       0.000    
  21    0.000       494.1       492.8       493.0       492.9       492.5       491.7       490.2       488.8       487.5    
        486.4       485.5       484.7       483.9       483.3       483.0       483.4       484.0       484.5       485.0    
        485.6       486.3       487.2       488.2       488.7       488.7       488.3       488.2       488.3       487.7    
        486.2       484.8       483.7       482.8       482.2       482.2       482.4       482.8       483.1       483.4    
        483.6       483.8       484.1       484.4       484.9       485.4       486.0       486.6       487.3       488.2    
        489.2       490.2       491.1       492.2       493.2       494.1       494.1       491.4       486.4       482.3    
        486.8       490.6       489.7       0.000    
  22    0.000       494.0       492.5       492.7       492.7       492.3       491.5       490.1       488.6       487.3    
        486.2       485.3       484.4       483.6       482.8       482.4       482.6       483.2       483.7       484.2    
        484.8       485.4       486.4       487.5       488.0       487.8       487.0       486.4       486.9       486.5    
        485.7       484.3       482.9       481.7       480.9       480.9       481.2       481.6       481.9       482.3    
        482.5       482.8       483.1       483.5       484.0       484.6       485.3       485.9       486.6       487.6    
        488.7       489.8       490.8       491.9       493.0       493.9       493.8       490.9       485.7       481.4    
        486.7       490.4       489.4       0.000    
  23    0.000       493.9       492.4       492.5       492.5       492.1       491.3       490.0       488.5       487.2    
        486.1       485.1       484.2       483.3       482.4       481.9       481.9       482.5       483.0       483.5    
        484.0       484.7       485.7       486.8       487.3       487.0       486.1       485.1       485.0       485.9    
        484.4       483.5       482.3       480.9       479.9       479.9       480.2       480.5       480.9       481.3    
        481.6       481.9       482.2       482.6       483.2       483.9       484.6       485.2       486.0       487.0    
        488.2       489.4       490.4       491.6       492.8       493.6       493.5       490.5       485.0       480.7    
        486.5       490.1       489.2       0.000    
  24    0.000       493.8       492.2       492.2       492.2       491.9       491.2       489.8       488.4       487.0    
        485.9       485.0       484.0       483.0       482.1       481.4       481.3       481.8       482.3       482.7    
        483.3       483.9       484.9       486.1       486.6       486.2       485.2       484.3       483.7       485.4    
        484.0       482.0       481.2       480.1       479.0       478.9       479.2       479.6       480.0       480.4    
        480.7       481.0       481.3       481.8       482.4       483.1       483.8       484.5       485.3       486.4    
        487.7       488.9       490.1       491.3       492.5       493.3       493.1       490.0       484.3       480.0    
        486.4       489.9       489.0       0.000    
  25    0.000       493.7       492.0       491.9       492.0       491.7       491.0       489.7       488.3       486.9    
        485.8       484.9       483.9       482.8       481.8       481.0       480.7       481.1       481.6       482.0    
        482.6       483.1       484.2       485.5       485.9       485.5       484.4       483.7       483.3       482.3    
        485.1       481.3       479.6       478.9       478.2       478.1       478.4       478.7       479.1       479.5    
        479.8       480.1       480.4       480.9       481.6       482.3       483.0       483.7       484.5       485.8    
        487.2       488.5       489.7       491.0       492.2       493.0       492.8       489.5       483.6       479.2    
        486.2       489.7       488.8       0.000    
  26    0.000       493.6       491.8       491.6       491.7       491.4       490.8       489.6       488.1       486.8    
        485.7       484.7       483.7       482.7       481.6       480.7       480.2       480.5       480.9       481.3    
        481.8       482.4       483.6       484.9       485.2       484.6       483.7       482.9       482.0       480.3    
        481.4       483.3       478.7       477.4       477.0       477.3       477.6       477.9       478.3       478.7    
        479.0       479.3       479.6       480.1       480.8       481.5       482.2       482.9       483.8       485.1    
        486.7       488.0       489.3       490.7       491.9       492.7       492.4       489.0       482.9       478.5    
        486.1       489.4       488.6       0.000    
  27    0.000       493.5       491.6       491.3       491.4       491.2       490.6       489.4       488.0       486.7    
        485.6       484.6       483.6       482.5       481.4       480.4       479.8       479.9       480.3       480.7    
        481.1       481.7       483.1       484.3       484.6       483.9       483.1       482.4       480.7       479.4    
        474.6       477.7       480.3       476.5       475.8       476.3       476.8       477.2       477.6       477.9    
        478.2       478.5       478.8       479.3       479.9       480.6       481.4       482.1       482.9       484.4    
        486.1       487.6       488.9       490.3       491.5       492.3       492.0       488.5       482.2       477.7    
        485.9       489.2       488.3       0.000    
  28    0.000       493.4       491.3       491.0       491.1       490.9       490.3       489.3       487.9       486.6    
        485.5       484.5       483.5       482.5       481.3       480.2       479.5       479.4       479.7       480.1    
        480.4       481.2       482.7       483.9       484.1       483.5       482.8       482.0       480.3       479.2    
        475.2       469.5       473.9       477.0       475.0       475.3       475.9       476.5       476.9       477.2    
        477.5       477.7       478.0       478.5       479.1       479.8       480.5       481.1       482.1       483.7    
        485.5       487.0       488.4       489.8       491.0       491.9       491.5       487.9       481.5       476.9    
        485.8       488.9       488.1       0.000    
  29    0.000       493.3       491.1       490.6       490.8       490.6       490.1       489.1       487.7       486.4    
        485.4       484.4       483.5       482.4       481.2       480.0       479.2       478.9       479.2       479.5    
        479.8       480.9       482.5       483.6       483.7       483.3       482.7       481.7       480.2       479.3    
        477.2       468.9       468.0       472.7       474.6       474.6       475.1       475.7       476.1       476.5    
        476.8       477.0       477.3       477.7       478.3       478.8       479.5       480.2       481.2       483.0    
        484.9       486.5       487.9       489.4       490.6       491.5       491.0       487.2       480.7       476.2    
        485.6       488.7       487.9       0.000    
  30    0.000       493.2       490.9       490.3       490.4       490.3       489.8       488.9       487.6       486.3    
        485.3       484.4       483.4       482.4       481.2       480.0       479.0       478.5       478.8       479.0    
        479.4       480.8       482.5       483.5       483.6       483.2       482.6       481.5       480.4       479.6    
        478.7       477.3       473.3       471.2       473.5       474.3       474.5       474.9       475.4       475.8    
        476.1       476.3       476.6       476.9       477.4       477.9       478.5       479.2       480.3       482.2    
        484.2       485.9       487.4       488.8       490.1       491.0       490.5       486.6       479.9       475.4    
        485.4       488.4       487.6       0.000    
  31    0.000       493.1       490.7       489.9       490.1       490.0       489.6       488.7       487.4       486.2    
        485.2       484.3       483.4       482.3       481.2       480.0       478.8       478.3       478.4       478.6    
        479.1       480.9       482.7       483.5       483.6       483.2       482.4       481.5       480.6       479.8    
        479.1       478.9       477.5       470.2       471.9       474.2       474.3       474.5       474.8       475.1    
        475.4       475.6       475.9       476.2       476.6       477.0       477.5       478.2       479.4       481.5    
        483.6       485.3       486.8       488.3       489.6       490.6       490.0       486.0       479.2       474.7    
        485.2       488.1       487.4       0.000    
  32    0.000       493.0       490.5       489.5       489.7       489.7       489.3       488.5       487.3       486.1    
        485.1       484.2       483.3       482.3       481.3       480.1       478.8       478.1       478.1       478.3    
        479.1       481.2       482.9       483.6       483.7       483.3       482.5       481.7       480.7       479.4    
        478.1       476.6       473.5       469.1       469.2       473.6       474.1       474.2       474.4       474.6    
        474.8       475.0       475.2       475.5       475.7       476.0       476.4       477.2       478.5       480.7    
        482.9       484.7       486.2       487.7       489.1       490.1       489.5       485.3       478.4       474.0    
        485.0       487.9       487.2       0.000    
  33    0.000       492.8       490.3       489.2       489.4       489.3       489.0       488.3       487.1       485.9    
        485.0       484.1       483.3       482.3       481.3       480.2       478.8       478.0       477.9       478.0    
        479.3       481.8       483.3       483.8       483.8       483.3       482.7       482.0       481.0       479.7    
        478.2       476.2       473.3       469.9       468.3       471.7       473.8       474.1       474.2       474.3    
        474.4       474.5       474.6       474.8       474.9       475.1       475.4       476.2       477.6       479.9    
        482.2       484.0       485.5       487.1       488.6       489.6       488.9       484.6       477.7       473.4    
        484.8       487.6       486.9       0.000    
  34    0.000       492.7       490.0       488.8       489.0       489.0       488.7       488.0       486.9       485.8    
        484.9       484.1       483.2       482.4       481.4       480.3       479.0       477.9       477.7       477.9    
        479.9       482.5       483.7       484.0       483.8       483.4       482.9       482.3       481.4       480.1    
        478.6       476.4       473.8       470.7       468.8       469.4       473.2       473.8       474.0       474.1    
        474.2       474.2       474.2       474.2       474.1       474.1       474.4       475.2       476.7       479.1    
        481.4       483.3       484.9       486.6       488.1       489.1       488.4       483.9       476.9       472.8    
        484.6       487.4       486.7       0.000    
  35    0.000       492.6       489.8       488.4       488.6       488.6       488.4       487.8       486.8       485.7    
        484.8       484.0       483.2       482.4       481.5       480.5       479.2       478.0       477.6       478.2    
        481.2       483.4       483.9       484.0       483.7       483.2       482.6       481.9       480.8       479.5    
        477.8       475.9       473.7       471.2       469.4       469.0       471.9       473.4       473.8       473.9    
        473.9       473.9       473.8       473.6       473.4       473.2       473.3       474.3       475.9       478.3    
        480.6       482.5       484.2       486.0       487.5       488.5       487.8       483.2       476.1       472.2    
        484.3       487.1       486.4       0.000    
  36    0.000       492.4       489.5       487.9       488.1       488.2       488.0       487.5       486.6       485.5    
        484.6       483.9       483.2       482.4       481.6       480.7       479.6       478.1       477.5       481.4    
        483.4       484.0       484.0       483.8       483.3       482.5       481.7       480.7       479.4       477.7    
        475.9       473.8       471.7       469.8       468.6       469.4       468.9       472.5       473.4       473.6    
        473.6       473.6       473.4       473.0       472.5       472.1       472.2       473.3       474.9       477.3    
        479.7       481.7       483.4       485.2       486.8       487.9       487.0       482.4       475.2       471.5    
        484.0       486.7       486.1       0.000    
  37    0.000       492.2       489.2       487.3       487.4       487.6       487.5       487.1       486.3       485.3    
        484.5       483.8       483.1       482.4       481.8       481.0       480.1       478.6       477.9       483.7    
        484.0       484.0       483.7       483.2       482.5       481.6       480.6       479.5       478.0       476.2    
        474.2       472.1       470.1       468.0       466.2       466.1       469.7       470.0       472.6       473.2    
        473.3       473.1       472.8       472.2       471.4       470.8       471.1       472.1       473.8       476.2    
        478.7       480.7       482.5       484.3       485.9       487.0       486.1       481.3       474.1       470.8    
        483.7       486.3       485.8       0.000    
  38    0.000       491.9       488.7       486.6       486.6       486.9       486.9       486.6       486.0       485.1    
        484.3       483.7       483.1       482.5       481.9       481.4       480.7       479.7       479.0       482.6    
        483.8       483.7       483.2       482.5       481.6       480.5       479.4       478.2       476.6       474.8    
        472.8       470.9       469.0       467.1       465.2       463.9       463.5       466.6       470.6       472.6    
        472.9       472.6       472.0       471.0       469.9       469.3       469.9       471.0       472.6       475.0    
        477.5       479.5       481.3       483.1       484.8       485.9       485.0       480.0       472.7       470.0    
        483.2       485.8       485.3       0.000    
  39    0.000       491.6       488.3       485.9       485.7       486.1       486.2       486.1       485.6       484.8    
        484.1       483.6       483.0       482.5       482.1       481.7       481.4       481.2       480.7       482.6    
        483.6       483.4       482.7       481.8       480.7       479.4       478.2       476.9       475.2       473.4    
        471.5       469.7       467.9       466.1       464.4       463.1       462.4       462.4       467.0       471.4    
        472.8       472.6       471.6       469.8       468.4       468.0       468.7       469.9       471.5       473.8    
        476.2       478.2       480.0       481.9       483.6       484.7       483.7       478.6       471.3       469.2    
        482.8       485.3       484.9       0.000    
  40    0.000       491.3       487.7       485.0       484.7       485.1       485.4       485.4       485.1       484.4    
        483.9       483.4       482.9       482.5       482.2       482.1       482.2       482.4       482.4       483.1    
        483.5       483.0       482.1       480.9       479.5       478.0       476.6       475.2       473.5       471.7    
        469.9       468.1       466.4       464.6       462.9       461.6       461.0       461.1       462.8       465.8    
        471.2       473.3       472.1       468.9       467.1       467.0       467.7       468.8       470.3       472.5    
        474.8       476.7       478.5       480.4       482.1       483.2       482.1       477.0       469.7       468.3    
        482.2       484.7       484.3       0.000    
  41    0.000       490.9       487.1       484.1       483.5       484.0       484.5       484.7       484.5       484.0    
        483.6       483.2       482.8       482.6       482.4       482.4       482.7       483.0       483.3       483.5    
        483.3       482.5       481.2       479.6       477.8       476.2       474.7       473.3       471.7       469.9    
        468.2       466.6       464.9       463.3       461.5       459.9       458.9       458.5       458.9       461.6    
        464.6       466.7       473.2       468.6       466.2       466.4       467.0       468.0       469.3       471.3    
        473.4       475.2       477.0       478.9       480.5       481.5       480.5       475.2       468.0       467.5    
        481.6       484.0       483.7       0.000    
  42    0.000       490.4       486.5       483.2       482.3       482.9       483.5       483.9       483.9       483.6    
        483.2       482.9       482.7       482.5       482.5       482.7       482.9       483.2       483.4       483.5    
        483.0       481.7       480.2       478.4       476.5       474.8       473.3       472.0       470.4       468.8    
        467.2       465.6       464.1       462.5       460.7       459.0       457.6       456.6       456.1       456.2    
        457.8       457.2       465.8       465.5       465.7       466.0       466.6       467.4       468.5       470.3    
        472.2       473.9       475.5       477.3       478.9       479.8       478.8       473.5       466.4       466.8    
        481.0       483.4       483.1       0.000    
  43    0.000       490.0       485.9       482.3       481.2       481.8       482.6       483.1       483.3       483.1    
        482.9       482.7       482.5       482.5       482.6       482.8       483.0       483.2       483.4       483.4    
        482.8       481.5       479.8       477.8       475.9       474.2       472.7       471.4       469.8       468.2    
        466.7       465.2       463.8       462.2       460.5       458.8       457.4       456.4       455.7       455.4    
        455.6       458.9       461.5       464.8       465.3       465.7       466.2       466.8       467.8       469.4    
        471.1       472.6       474.1       475.8       477.3       478.2       477.1       471.9       464.9       466.1    
        480.4       482.7       482.6       0.000    
  44    0.000       489.5       485.1       481.4       479.9       480.5       481.5       482.2       482.5       482.5    
        482.4       482.3       482.3       482.4       482.5       482.7       482.9       483.1       483.2       483.1    
        482.5       481.2       479.5       477.6       475.7       474.0       472.6       471.3       469.8       468.3    
        466.8       465.4       464.0       462.5       460.9       459.2       457.9       457.1       456.9       457.0    
        457.1       457.5       458.7       461.6       463.8       464.8       465.5       466.1       467.0       468.4    
        469.9       471.2       472.6       474.1       475.5       476.2       475.2       470.1       463.3       465.4    
        479.6       482.0       481.9       0.000    
  45    0.000       488.9       484.3       480.2       478.3       478.9       480.0       480.9       481.5       481.8    
        481.8       481.8       481.9       482.1       482.3       482.5       482.7       482.8       482.8       482.6    
        482.1       480.8       479.3       477.4       475.7       474.1       472.7       471.5       470.0       468.6    
        467.2       465.8       464.5       463.2       461.9       460.6       459.6       458.8       458.2       458.0    
        458.1       458.5       459.2       460.7       462.0       463.2       464.3       465.1       465.9       467.1    
        468.4       469.6       470.7       472.0       473.2       473.8       472.8       468.0       461.5       464.6    
        478.6       481.1       481.2       0.000    
  46    0.000       488.1       483.1       478.8       476.5       476.9       478.2       479.3       480.2       480.7    
        480.9       481.1       481.3       481.6       481.8       482.0       482.1       482.2       482.1       481.9    
        481.3       480.2       478.8       477.2       475.6       474.1       472.8       471.7       470.4       469.1    
        468.0       466.9       465.8       464.7       463.5       462.2       461.1       460.1       459.4       459.1    
        459.0       459.2       459.5       460.2       460.9       461.7       462.6       463.5       464.5       465.5    
        466.6       467.5       468.5       469.5       470.4       470.8       469.9       465.5       459.4       463.6    
        477.3       480.1       480.2       0.000    
  47    0.000       487.1       481.8       477.2       474.5       474.6       476.0       477.4       478.5       479.2    
        479.7       480.0       480.4       480.7       481.0       481.2       481.3       481.3       481.2       480.9    
        480.4       479.4       478.1       476.6       475.2       474.0       472.9       472.0       471.0       469.9    
        468.9       467.9       467.0       465.9       464.7       463.4       462.2       461.1       460.3       459.8    
        459.5       459.4       459.4       459.6       459.9       460.3       460.9       461.6       462.4       463.5    
        464.5       465.2       465.9       466.7       467.3       467.4       466.6       462.9       457.4       462.6    
        475.9       478.8       479.2       0.000    
  48    0.000       486.0       480.5       475.6       472.6       472.3       473.7       475.3       476.7       477.6    
        478.3       478.8       479.2       479.7       480.0       480.2       480.3       480.3       480.1       479.8    
        479.2       478.3       477.1       475.8       474.6       473.6       472.7       472.0       471.1       470.1    
        469.2       468.3       467.4       466.4       465.2       463.9       462.7       461.5       460.6       459.9    
        459.5       459.2       459.0       458.9       458.9       459.0       459.4       459.8       460.4       461.3    
        462.1       462.8       463.3       463.8       464.1       464.0       463.3       460.4       455.5       461.7    
        474.4       477.6       478.1       0.000    
  49    0.000       484.7       478.9       473.8       470.6       469.8       471.2       473.0       474.5       475.7    
        476.6       477.2       477.7       478.2       478.6       478.9       478.9       478.8       478.6       478.2    
        477.7       476.8       475.7       474.6       473.5       472.6       471.9       471.2       470.4       469.6    
        468.7       467.9       467.0       466.1       465.0       463.7       462.5       461.3       460.3       459.6    
        459.0       458.7       458.3       457.9       457.7       457.6       457.7       457.9       458.3       458.8    
        459.5       460.1       460.4       460.7       460.9       460.6       459.8       457.8       453.8       460.6    
        472.8       476.3       476.9       0.000    
  50    0.000       483.0       476.8       471.6       468.1       466.9       468.0       469.9       471.6       473.0    
        474.1       474.9       475.5       476.1       476.5       476.8       476.8       476.6       476.3       475.9    
        475.3       474.4       473.4       472.4       471.4       470.6       469.9       469.3       468.5       467.8    
        467.1       466.3       465.6       464.7       463.7       462.5       461.3       460.2       459.2       458.5    
        457.9       457.5       457.0       456.5       456.0       455.8       455.7       455.7       455.9       456.1    
        456.5       456.9       457.1       457.2       457.1       456.7       456.0       454.9       452.0       459.3    
        470.7       474.5       475.4       0.000    
  51    0.000       481.1       474.8       469.5       465.9       464.3       465.1       466.9       468.8       470.3    
        471.5       472.4       473.1       473.7       474.2       474.3       474.2       473.9       473.6       473.2    
        472.6       471.7       470.7       469.6       468.7       467.9       467.3       466.7       466.0       465.4    
        464.7       464.0       463.4       462.6       461.7       460.6       459.6       458.6       457.7       457.1    
        456.5       456.1       455.6       455.0       454.5       454.1       454.0       453.9       454.0       454.1    
        454.2       454.4       454.6       454.5       454.3       453.9       453.2       452.5       450.9       458.2    
        468.7       472.9       473.9       0.000    
  52    0.000       479.5       473.0       467.7       464.2       462.4       462.9       464.6       466.4       468.0    
        469.3       470.1       470.9       471.5       471.8       471.9       471.7       471.5       471.1       470.6    
        470.0       469.0       468.0       467.0       466.1       465.4       464.8       464.2       463.6       463.0    
        462.4       461.8       461.2       460.5       459.7       458.8       457.9       457.1       456.3       455.7    
        455.3       454.9       454.5       453.9       453.3       453.0       452.8       452.7       452.7       452.7    
        452.8       452.9       453.0       452.9       452.6       452.2       451.6       451.0       450.3       457.3    
        467.1       471.5       472.7       0.000    
  53    0.000       478.2       471.6       466.3       462.8       461.0       461.2       462.7       464.5       466.1    
        467.4       468.2       469.0       469.5       469.8       469.8       469.6       469.3       468.9       468.3    
        467.6       466.6       465.6       464.7       463.8       463.1       462.6       462.1       461.5       461.0    
        460.4       459.9       459.4       458.8       458.1       457.3       456.5       455.8       455.2       454.7    
        454.3       454.0       453.6       453.1       452.5       452.2       452.0       451.9       451.9       451.9    
        451.9       451.9       452.0       451.9       451.6       451.2       450.8       450.4       450.1       456.5    
        465.9       470.4       471.8       0.000    
  54    0.000       476.9       470.3       465.1       461.7       459.8       459.7       461.2       462.9       464.4    
        465.6       466.5       467.1       467.6       467.8       467.8       467.5       467.2       466.7       466.2    
        465.4       464.4       463.4       462.5       461.7       461.1       460.6       460.2       459.7       459.2    
        458.7       458.2       457.8       457.2       456.6       456.0       455.3       454.7       454.2       453.8    
        453.5       453.2       452.9       452.5       452.0       451.6       451.4       451.3       451.3       451.3    
        451.3       451.3       451.3       451.2       451.0       450.7       450.4       450.1       450.0       455.9    
        464.8       469.5       471.0       0.000    
  55    0.000       475.6       469.0       463.9       460.5       458.6       458.4       459.6       461.2       462.7    
        463.9       464.6       465.2       465.6       465.8       465.7       465.4       465.0       464.5       463.9    
        463.1       462.1       461.2       460.4       459.7       459.1       458.7       458.3       457.9       457.4    
        457.0       456.6       456.2       455.8       455.3       454.8       454.2       453.8       453.3       453.0    
        452.7       452.5       452.3       451.9       451.5       451.2       450.9       450.8       450.8       450.8    
        450.8       450.8       450.8       450.7       450.6       450.4       450.2       450.0       450.0       455.3    
        463.7       468.6       470.3       0.000    
  56    0.000       474.0       467.5       462.5       459.3       457.4       456.9       458.0       459.4       460.7    
        461.8       462.5       463.0       463.3       463.4       463.2       462.9       462.4       461.9       461.2    
        460.4       459.5       458.7       458.0       457.4       457.0       456.6       456.3       456.0       455.6    
        455.3       455.0       454.7       454.3       453.9       453.5       453.1       452.7       452.4       452.2    
        452.0       451.8       451.6       451.4       451.1       450.8       450.6       450.5       450.4       450.4    
        450.4       450.4       450.4       450.3       450.2       450.1       450.0       450.0       450.0       454.7    
        462.5       467.7       469.4       0.000    
  57    0.000       472.1       465.7       460.9       457.9       456.1       455.4       456.2       457.4       458.5    
        459.4       460.0       460.4       460.6       460.6       460.3       459.9       459.4       458.8       458.1    
        457.4       456.6       456.0       455.5       455.1       454.7       454.5       454.2       454.0       453.7    
        453.5       453.3       453.0       452.8       452.5       452.2       452.0       451.7       451.5       451.3    
        451.2       451.1       451.0       450.8       450.6       450.4       450.3       450.2       450.2       450.1    
        450.1       450.1       450.1       450.1       450.1       450.0       450.0       450.0       450.0       453.9    
        461.2       466.7       468.5       0.000    
  58    0.000       469.8       463.6       459.2       456.3       454.7       453.9       454.3       455.2       456.1    
        456.8       457.2       457.6       457.7       457.5       457.1       456.6       456.0       455.4       454.8    
        454.3       453.8       453.4       453.1       452.8       452.6       452.4       452.3       452.1       451.9    
        451.8       451.7       451.5       451.4       451.2       451.0       450.9       450.7       450.6       450.5    
        450.4       450.3       450.2       450.1       450.0       449.9       449.8       449.8       449.8       449.9    
        450.0       450.0       450.0       450.0       450.0       450.0       450.0       450.0       450.0       453.1    
        459.9       465.5       467.5       0.000    
  59    0.000       467.2       461.3       457.3       454.8       453.3       452.5       452.6       453.2       453.8    
        454.2       454.5       454.7       454.6       454.3       453.8       453.2       452.7       452.3       452.0    
        451.7       451.5       451.3       451.1       450.9       450.8       450.7       450.7       450.6       450.5    
        450.4       450.3       450.2       450.1       450.0       449.9       449.8       449.6       449.5       449.4    
        449.3       449.3       449.2       449.1       448.9       448.7       448.5       448.4       448.1       448.2    
        448.9       449.6       449.8       449.9       450.0       450.0       450.0       450.0       450.0       452.3    
        458.7       464.4       466.4       0.000    
  60    0.000       464.7       459.1       455.3       453.2       452.0       451.3       451.2       451.5       451.8    
        452.0       452.0       452.0       451.8       451.4       451.0       450.7       450.5       450.3       450.2    
        450.2       450.1       450.0       449.9       449.8       449.7       449.6       449.5       449.4       449.3    
        449.1       449.0       448.9       448.7       448.5       448.2       448.0       447.7       447.4       447.1    
        446.8       446.6       446.3       445.8       445.1       444.2       443.0       441.6       441.6       443.8    
        446.6       448.3       449.2       449.6       449.9       450.0       450.0       450.0       450.0       451.7    
        457.7       463.2       465.2       0.000    
  61    0.000       462.4       457.4       454.0       452.0       450.9       450.4       450.3       450.4       450.4    
        450.4       450.3       450.1       449.9       449.7       449.5       449.3       449.0       448.7       448.5    
        448.4       448.1       447.2       445.9       445.0       444.3       443.8       443.4       443.0       442.6    
        442.2       441.8       441.4       440.9       440.4       439.8       439.1       438.5       437.8       437.2    
        436.7       436.2       435.7       434.9       433.8       432.7       431.8       431.6       433.7       440.2    
        445.1       447.5       448.8       449.5       449.9       450.0       450.1       450.1       450.3       451.5    
        456.8       462.0       464.0       0.000    
  62    0.000       460.3       456.0       453.1       451.4       450.5       450.1       450.0       449.9       449.8    
        449.5       449.1       448.4       447.3       446.0       444.8       443.8       443.1       442.6       442.3    
        442.0       441.8       441.4       440.9       440.2       439.7       439.2       438.7       438.3       438.0    
        437.7       437.5       437.4       437.3       437.2       437.1       437.0       437.0       436.9       436.9    
        436.9       436.8       436.8       436.9       437.0       437.3       437.8       438.5       439.2       444.0    
        448.1       449.3       449.8       450.0       450.2       450.6       451.2       452.0       451.8       451.8    
        456.2       460.9       462.9       0.000    
  63    0.000       458.3       454.9       452.6       451.2       450.5       450.2       450.1       450.0       450.0    
        449.8       449.4       448.7       447.7       446.6       445.8       445.2       445.0       445.0       445.1    
        445.7       446.5       447.0       447.1       447.0       446.9       446.8       446.8       446.7       446.7    
        446.7       446.7       446.8       446.9       447.0       447.3       447.5       447.9       448.2       448.4    
        448.7       448.9       449.1       449.5       449.8       450.1       450.3       450.4       450.4       450.4    
        450.4       450.7       451.2       451.9       453.0       454.6       456.6       458.2       454.6       452.9    
        456.0       460.1       461.9       0.000    
  64    0.000       457.4       455.0       453.3       452.2       451.6       451.2       450.9       450.8       450.7    
        450.6       450.6       450.5       450.6       451.1       451.6       452.1       452.6       453.0       453.3    
        453.6       453.7       453.8       453.7       454.0       454.3       454.7       455.0       455.4       455.6    
        455.8       455.9       456.0       456.0       456.0       456.0       456.0       456.0       456.0       456.0    
        456.0       456.0       456.0       456.0       456.0       456.0       456.1       456.2       456.4       456.8    
        457.5       458.3       459.3       460.8       462.7       465.0       467.3       465.6       459.6       455.2    
        456.6       459.6       461.1       0.000    
  65    0.000       459.5       458.0       456.7       455.8       455.2       454.8       454.5       454.3       454.3    
        454.2       454.2       454.2       454.3       454.4       454.6       454.9       455.2       455.5       455.7    
        456.1       456.4       456.7       457.0       457.3       457.5       457.7       457.8       458.0       458.2    
        458.4       458.6       458.8       459.1       459.3       459.7       460.0       460.3       460.6       460.9    
        461.1       461.3       461.6       462.0       462.5       463.1       463.7       464.3       465.0       466.5    
        469.0       470.5       471.7       472.9       473.8       474.8       475.3       472.6       466.8       459.5    
        458.2       459.7       460.7       0.000    
  66    0.000       0.000       0.000       0.000       0.000       0.000       0.000       0.000       0.000       0.000    
        0.000       0.000       0.000       0.000       0.000       0.000       0.000       0.000       0.000       0.000    
        0.000       0.000       0.000       0.000       0.000       0.000       0.000       0.000       0.000       0.000    
        0.000       0.000       0.000       0.000       0.000       0.000       0.000       0.000       0.000       0.000    
        0.000       0.000       0.000       0.000       0.000       0.000       0.000       0.000       0.000       0.000    
        0.000       0.000       0.000       0.000       0.000       0.000       0.000       0.000       0.000       0.000    
        0.000       0.000       0.000       0.000    



             MODEL LAYER BOTTOM EL. FOR LAYER   2
 READING ON UNIT   14 WITH FORMAT: (10F13.0)           

            1           2           3           4           5           6           7           8           9          10
           11          12          13          14          15          16          17          18          19          20
           21          22          23          24          25          26          27          28          29          30
           31          32          33          34          35          36          37          38          39          40
           41          42          43          44          45          46          47          48          49          50
           51          52          53          54          55          56          57          58          59          60
           61          62          63          64
 ........................................................................................................................
   1    0.000       0.000       0.000       0.000       0.000       0.000       0.000       0.000       0.000       0.000    
        0.000       0.000       0.000       0.000       0.000       0.000       0.000       0.000       0.000       0.000    
        0.000       0.000       0.000       0.000       0.000       0.000       0.000       0.000       0.000       0.000    
        0.000       0.000       0.000       0.000       0.000       0.000       0.000       0.000       0.000       0.000    
        0.000       0.000       0.000       0.000       0.000       0.000       0.000       0.000       0.000       0.000    
        0.000       0.000       0.000       0.000       0.000       0.000       0.000       0.000       0.000       0.000    
        0.000       0.000       0.000       0.000    
   2    0.000       474.4       474.0       473.9       473.8       473.9       473.9       473.9       474.0       474.3    
        474.5       474.6       474.8       475.0       475.1       475.2       475.3       475.4       475.5       475.5    
        475.6       475.7       475.7       475.8       475.8       475.8       475.9       475.9       475.9       476.0    
        476.0       476.0       476.1       476.1       476.1       476.2       476.2       476.3       476.3       476.4    
        476.4       476.4       476.5       476.5       476.6       476.7       476.8       476.9       477.1       477.2    
        477.4       477.5       477.7       477.9       478.0       478.3       478.5       478.8       479.1       479.3    
        479.5       479.5       479.5       0.000    
   3    0.000       475.9       475.7       475.6       475.5       475.5       475.9       476.3       476.6       476.9    
        477.1       477.3       477.5       477.7       477.9       478.1       478.2       478.3       478.3       478.4    
        478.5       478.6       478.6       478.7       478.7       478.7       478.8       478.8       478.8       478.9    
        478.9       478.9       479.0       479.0       479.0       479.1       479.1       479.2       479.2       479.3    
        479.3       479.3       479.4       479.4       479.5       479.6       479.7       479.8       479.9       480.1    
        480.3       480.4       480.5       480.7       480.9       481.1       481.4       481.6       481.9       482.1    
        482.1       481.9       481.6       0.000    
   4    0.000       477.0       477.0       477.0       477.0       477.5       477.9       478.3       478.6       478.9    
        479.1       479.3       479.5       479.7       479.8       480.0       480.1       480.3       480.3       480.4    
        480.5       480.5       480.6       480.6       480.7       480.7       480.8       480.8       480.8       480.8    
        480.9       480.9       480.9       481.0       481.0       481.1       481.1       481.2       481.2       481.2    
        481.3       481.3       481.3       481.4       481.5       481.6       481.7       481.8       481.9       482.1    
        482.3       482.4       482.5       482.7       482.9       483.1       483.4       483.6       483.9       484.0    
        484.0       483.6       483.4       0.000    
   5    0.000       478.6       478.3       478.3       478.6       479.0       479.4       479.7       480.0       480.2    
        480.4       480.5       480.7       480.9       481.0       481.2       481.3       481.4       481.5       481.6    
        481.6       481.7       481.8       481.8       481.9       481.9       481.9       481.9       482.0       482.0    
        482.0       482.1       482.1       482.1       482.2       482.2       482.2       482.3       482.3       482.4    
        482.4       482.4       482.5       482.5       482.6       482.7       482.8       482.9       483.0       483.2    
        483.4       483.5       483.7       483.8       484.0       484.2       484.5       484.7       485.0       485.1    
        485.0       484.7       484.7       0.000    
   6    0.000       479.9       479.6       479.5       479.7       480.1       480.4       480.7       480.8       481.0    
        481.1       481.2       481.4       481.5       481.7       481.8       481.9       482.0       482.1       482.2    
        482.2       482.3       482.4       482.4       482.5       482.5       482.5       482.5       482.6       482.6    
        482.6       482.7       482.7       482.7       482.8       482.8       482.8       482.9       482.9       483.0    
        483.0       483.0       483.0       483.1       483.2       483.3       483.4       483.5       483.6       483.8    
        483.9       484.1       484.2       484.4       484.6       484.8       485.0       485.3       485.5       485.6    
        485.5       485.4       485.4       0.000    
   7    0.000       480.9       480.5       480.4       480.5       480.8       481.0       481.2       481.3       481.4    
        481.5       481.6       481.7       481.8       481.9       482.0       482.1       482.2       482.2       482.3    
        482.4       482.4       482.5       482.5       482.6       482.6       482.7       482.7       482.7       482.7    
        482.8       482.8       482.8       482.9       482.9       483.0       483.0       483.1       483.1       483.2    
        483.2       483.2       483.3       483.3       483.4       483.5       483.6       483.7       483.8       484.0    
        484.2       484.3       484.4       484.6       484.8       485.0       485.2       485.4       485.6       485.7    
        485.6       485.7       485.6       0.000    
   8    0.000       481.6       481.1       481.0       481.1       481.2       481.4       481.5       481.6       481.7    
        481.7       481.8       481.8       481.9       482.0       482.0       482.1       482.1       482.2       482.2    
        482.3       482.3       482.4       482.4       482.5       482.5       482.5       482.6       482.6       482.6    
        482.6       482.7       482.7       482.7       482.8       482.8       482.9       482.9       483.0       483.0    
        483.0       483.1       483.1       483.2       483.3       483.4       483.5       483.6       483.8       484.0    
        484.1       484.3       484.4       484.6       484.8       485.0       485.2       485.4       485.5       485.5    
        485.5       485.7       485.5       0.000    
   9    0.000       482.1       481.6       481.4       481.5       481.5       481.6       481.6       481.7       481.7    
        481.7       481.7       481.8       481.8       481.8       481.9       481.9       482.0       482.0       482.0    
        482.1       482.1       482.2       482.2       482.2       482.3       482.3       482.3       482.3       482.4    
        482.4       482.4       482.4       482.5       482.5       482.6       482.6       482.6       482.7       482.7    
        482.8       482.8       482.8       482.9       483.0       483.1       483.2       483.4       483.5       483.7    
        483.9       484.1       484.2       484.4       484.6       484.9       485.1       485.2       485.3       485.3    
        485.3       485.5       485.1       0.000    
  10    0.000       482.5       481.9       481.7       481.7       481.7       481.6       481.6       481.6       481.6    
        481.6       481.6       481.6       481.6       481.6       481.7       481.7       481.7       481.7       481.8    
        481.8       481.8       481.9       481.9       481.9       482.0       482.0       482.0       482.0       482.0    
        482.1       482.1       482.1       482.1       482.2       482.2       482.3       482.3       482.4       482.4    
        482.4       482.5       482.5       482.6       482.6       482.7       482.9       483.0       483.2       483.4    
        483.6       483.8       484.0       484.2       484.4       484.6       484.9       485.1       485.0       484.8    
        484.8       485.1       484.5       0.000    
  11    0.000       482.7       482.1       481.9       481.7       481.6       481.5       481.5       481.4       481.4    
        481.4       481.4       481.4       481.4       481.4       481.4       481.4       481.5       481.5       481.5    
        481.5       481.5       481.6       481.6       481.6       481.6       481.7       481.7       481.7       481.7    
        481.7       481.8       481.8       481.8       481.8       481.9       481.9       482.0       482.0       482.0    
        482.1       482.1       482.1       482.2       482.3       482.4       482.5       482.7       482.8       483.1    
        483.3       483.5       483.7       483.9       484.2       484.5       484.8       484.9       484.6       484.0    
        483.9       484.7       483.9       0.000    
  12    0.000       482.9       482.3       482.1       481.9       481.6       481.3       481.1       481.1       481.1    
        481.1       481.1       481.1       481.1       481.1       481.1       481.2       481.2       481.2       481.2    
        481.2       481.3       481.3       481.3       481.3       481.3       481.4       481.4       481.4       481.4    
        481.4       481.5       481.5       481.5       481.5       481.6       481.6       481.6       481.7       481.7    
        481.7       481.8       481.8       481.8       481.9       482.0       482.2       482.3       482.5       482.7    
        483.0       483.2       483.4       483.7       484.1       484.5       484.7       484.7       484.0       483.0    
        482.8       484.2       483.4       0.000    
  13    0.000       483.0       482.4       482.1       482.0       481.6       481.1       480.8       480.6       480.6    
        480.6       480.6       480.7       480.7       480.8       480.9       480.9       481.0       481.0       481.0    
        481.0       481.0       481.1       481.1       481.1       481.1       481.1       481.1       481.2       481.2    
        481.2       481.2       481.2       481.2       481.3       481.3       481.3       481.3       481.4       481.4    
        481.4       481.4       481.5       481.5       481.6       481.7       481.8       482.0       482.2       482.4    
        482.7       483.0       483.3       483.7       484.1       484.4       484.6       484.4       483.4       482.0    
        481.8       483.7       482.9       0.000    
  14    0.000       483.0       482.4       482.2       482.0       481.5       481.0       480.5       480.1       480.0    
        480.0       480.0       480.1       480.3       480.4       480.6       480.7       480.7       480.8       480.9    
        480.9       480.9       480.9       480.9       480.9       480.9       481.0       481.0       481.0       481.0    
        481.0       481.0       481.0       481.0       481.1       481.1       481.1       481.1       481.1       481.1    
        481.2       481.2       481.2       481.3       481.3       481.4       481.5       481.7       481.9       482.2    
        482.5       482.9       483.2       483.6       484.0       484.3       484.5       484.1       482.7       481.0    
        480.8       483.2       482.4       0.000    
  15    0.000       483.0       482.3       482.1       481.9       481.5       480.9       480.2       479.8       479.5    
        479.4       479.4       479.4       479.6       479.9       480.2       480.4       480.5       480.6       480.7    
        480.8       480.8       480.8       480.8       480.8       480.9       480.9       480.9       480.9       480.9    
        480.9       480.9       480.9       480.9       480.9       480.9       480.9       480.9       480.9       480.9    
        480.9       480.9       481.0       481.0       481.0       481.1       481.2       481.4       481.6       481.9    
        482.3       482.7       483.1       483.5       484.0       484.3       484.4       483.8       482.0       480.0    
        480.1       482.9       482.0       0.000    
  16    0.000       483.0       482.2       482.0       481.9       481.5       480.8       480.0       479.4       479.0    
        478.8       478.7       478.7       478.8       479.1       479.5       479.8       480.1       480.3       480.4    
        480.6       480.7       480.8       480.8       480.8       480.8       480.8       480.8       480.8       480.8    
        480.8       480.8       480.7       480.7       480.7       480.6       480.6       480.6       480.6       480.6    
        480.6       480.6       480.6       480.6       480.7       480.7       480.9       481.0       481.3       481.7    
        482.1       482.5       482.9       483.4       483.8       484.2       484.2       483.4       481.2       479.1    
        479.5       482.5       481.7       0.000    
  17    0.000       483.0       482.0       481.9       481.7       481.4       480.7       479.9       479.1       478.5    
        478.1       477.9       477.8       477.8       477.9       478.4       478.8       479.2       479.5       479.8    
        480.0       480.3       480.5       481.0       481.1       480.9       480.8       480.7       480.6       480.6    
        480.4       480.3       480.2       480.1       480.0       479.9       479.8       479.8       479.8       479.8    
        479.8       479.8       479.9       479.9       480.0       480.1       480.3       480.5       480.8       481.2    
        481.7       482.2       482.6       483.1       483.6       484.0       484.1       482.9       480.3       477.8    
        478.9       482.0       481.2       0.000    
  18    0.000       483.0       481.8       481.7       481.5       481.2       480.6       479.7       478.8       478.1    
        477.6       477.2       476.9       476.7       476.7       477.1       477.6       478.0       478.4       478.7    
        479.1       479.6       480.1       480.8       481.3       481.3       481.0       480.7       480.4       480.0    
        479.8       479.5       479.2       479.0       478.7       478.6       478.6       478.6       478.7       478.7    
        478.8       478.8       478.9       479.0       479.1       479.3       479.5       479.8       480.1       480.7    
        481.2       481.7       482.2       482.8       483.3       483.8       483.8       482.2       479.2       476.5    
        478.4       481.5       480.7       0.000    
  19    0.000       482.9       481.6       481.5       481.4       481.1       480.5       479.5       478.6       477.9    
        477.3       476.8       476.4       476.1       476.0       476.1       476.6       477.1       477.5       477.9    
        478.4       478.9       479.6       480.4       480.9       481.4       481.2       480.8       480.2       479.6    
        479.1       478.7       478.3       477.9       477.6       477.5       477.5       477.6       477.7       477.8    
        477.9       478.0       478.0       478.2       478.4       478.6       478.9       479.2       479.6       480.2    
        480.8       481.3       481.9       482.5       483.1       483.6       483.6       481.8       478.4       475.6    
        478.1       481.2       480.4       0.000    
  20    0.000       482.9       481.4       481.3       481.2       480.9       480.4       479.4       478.5       477.6    
        477.0       476.5       476.0       475.6       475.3       475.2       475.7       476.1       476.6       477.0    
        477.6       478.2       479.0       479.8       480.3       480.6       480.9       480.7       480.3       479.3    
        478.5       477.8       477.2       476.6       476.2       476.2       476.3       476.4       476.6       476.7    
        476.9       477.0       477.1       477.3       477.6       477.9       478.2       478.6       479.0       479.6    
        480.3       480.9       481.5       482.2       482.8       483.4       483.3       481.3       477.6       474.7    
        477.8       480.8       480.1       0.000    
  21    0.000       482.8       481.3       481.1       481.0       480.8       480.3       479.3       478.3       477.5    
        476.8       476.2       475.7       475.1       474.7       474.6       474.9       475.3       475.8       476.2    
        476.8       477.4       478.3       479.2       479.6       479.7       479.8       480.0       479.8       479.3    
        478.2       477.2       476.3       475.6       475.1       475.0       475.2       475.4       475.6       475.8    
        475.9       476.1       476.2       476.5       476.8       477.2       477.6       478.0       478.5       479.1    
        479.8       480.5       481.2       481.9       482.6       483.1       483.0       480.8       476.9       473.9    
        477.6       480.5       479.8       0.000    
  22    0.000       482.8       481.1       481.0       480.9       480.6       480.1       479.2       478.2       477.4    
        476.6       476.0       475.4       474.8       474.3       474.0       474.2       474.7       475.1       475.6    
        476.1       476.8       477.6       478.6       479.0       479.0       478.4       478.6       479.3       478.5    
        477.9       476.8       475.8       474.9       474.2       474.1       474.3       474.5       474.8       475.0    
        475.2       475.3       475.5       475.8       476.2       476.6       477.0       477.4       477.9       478.6    
        479.4       480.1       480.8       481.6       482.3       482.9       482.7       480.4       476.3       473.2    
        477.4       480.3       479.6       0.000    
  23    0.000       482.7       481.0       480.8       480.7       480.5       480.0       479.1       478.1       477.3    
        476.5       475.9       475.3       474.6       474.0       473.6       473.6       474.1       474.5       475.0    
        475.5       476.1       477.0       478.0       478.5       478.4       477.7       477.0       478.1       478.6    
        477.0       476.3       475.3       474.3       473.5       473.4       473.5       473.8       474.0       474.3    
        474.5       474.6       474.8       475.2       475.6       476.0       476.5       476.9       477.4       478.2    
        479.0       479.8       480.5       481.3       482.1       482.6       482.4       480.0       475.8       472.6    
        477.2       480.0       479.4       0.000    
  24    0.000       482.7       480.9       480.6       480.5       480.4       479.9       479.0       478.1       477.2    
        476.4       475.8       475.1       474.4       473.7       473.3       473.1       473.5       473.9       474.4    
        474.9       475.5       476.4       477.5       477.9       477.7       477.0       476.4       476.0       479.1    
        477.2       475.2       474.6       473.8       472.9       472.8       472.9       473.1       473.3       473.6    
        473.8       474.0       474.2       474.5       474.9       475.4       475.9       476.4       476.9       477.7    
        478.6       479.4       480.2       481.1       481.8       482.3       482.0       479.6       475.2       472.0    
        477.0       479.8       479.1       0.000    
  25    0.000       482.6       480.8       480.4       480.4       480.2       479.8       478.9       478.0       477.1    
        476.3       475.6       475.0       474.2       473.5       472.9       472.7       473.0       473.4       473.8    
        474.3       474.8       475.8       476.9       477.4       477.1       476.3       475.8       475.6       476.7    
        479.2       475.0       473.4       472.9       472.3       472.2       472.3       472.5       472.7       472.9    
        473.1       473.3       473.5       473.9       474.3       474.8       475.3       475.8       476.3       477.2    
        478.2       479.1       479.9       480.8       481.6       482.0       481.7       479.2       474.6       471.4    
        476.9       479.6       478.9       0.000    
  26    0.000       482.5       480.6       480.2       480.2       480.0       479.6       478.8       477.9       477.0    
        476.2       475.5       474.8       474.1       473.3       472.6       472.3       472.5       472.8       473.2    
        473.7       474.2       475.3       476.4       476.8       476.4       475.6       475.0       474.1       473.3    
        476.4       477.6       472.9       471.9       471.5       471.6       471.8       471.9       472.1       472.4    
        472.5       472.7       472.9       473.3       473.7       474.2       474.7       475.1       475.7       476.6    
        477.7       478.7       479.5       480.5       481.3       481.7       481.4       478.7       474.0       470.8    
        476.7       479.3       478.7       0.000    
[...]
       0.4996      0.4216      0.3244      0.2372      0.1558      9.3566E-02  6.3547E-02  3.8865E-02  1.4937E-02 -1.1457E-02
      -4.4647E-02 -8.1156E-02 -0.1141     -0.1463     -0.1747     -0.1990     -0.2192     -0.2373     -0.2587     -0.2802    
      -0.3008     -0.3207     -0.3405     -0.3627     -0.3889     -0.4165     -0.4424     -0.4662     -0.4922     -0.5170    
      -0.5361     -0.5510     -0.5647     -0.5717     -0.5583     -0.5307     -0.5003     -0.4408     -0.3793     -0.3112    
      -0.2728     -0.2858     -0.2971     -0.3090     -0.3248     -0.3456     -0.3714     -0.4003     -0.4240     -0.4343    
      -0.4276     -0.3636       0.000      -999.0    
  46   -999.0      0.8507       1.105       1.013      0.9057      0.8197      0.7463      0.6740      0.5971      0.5148    
       0.4299      0.3435      0.2380      0.1473      6.3594E-02  1.0605E-03 -2.8954E-02 -5.3653E-02 -7.7082E-02 -0.1023    
      -0.1329     -0.1659     -0.1951     -0.2228     -0.2467     -0.2664     -0.2825     -0.2963     -0.3122     -0.3277    
      -0.3424     -0.3566     -0.3702     -0.3848     -0.4016     -0.4192     -0.4354     -0.4499     -0.4625     -0.4724    
      -0.4796     -0.4851     -0.4901     -0.4938     -0.4930     -0.4885     -0.4706     -0.4231     -0.3804     -0.3343    
      -0.3094     -0.3179     -0.3252     -0.3338     -0.3465     -0.3643     -0.3866     -0.4116     -0.4318     -0.4402    
      -0.4335     -0.3704       0.000      -999.0    
  47   -999.0      0.7004      0.9637      0.9142      0.8320      0.7590      0.6922      0.6226      0.5452      0.4602    
       0.3708      0.2798      0.1702      7.7055E-02 -7.3786E-03 -7.0068E-02 -0.1009     -0.1254     -0.1478     -0.1709    
      -0.1980     -0.2262     -0.2504     -0.2730     -0.2918     -0.3070     -0.3192     -0.3295     -0.3411     -0.3523    
      -0.3629     -0.3729     -0.3825     -0.3926     -0.4040     -0.4159     -0.4267     -0.4364     -0.4446     -0.4509    
      -0.4555     -0.4589     -0.4622     -0.4650     -0.4645     -0.4572     -0.4263     -0.3958     -0.3731     -0.3510    
      -0.3439     -0.3467     -0.3505     -0.3567     -0.3674     -0.3830     -0.4024     -0.4233     -0.4401     -0.4470    
      -0.4404     -0.3785       0.000      -999.0    
  48   -999.0      0.5958      0.8451      0.8260      0.7643      0.7035      0.6445      0.5800      0.5055      0.4212    
       0.3310      0.2383      0.1269      3.1829E-02 -5.3821E-02 -0.1177     -0.1495     -0.1739     -0.1953     -0.2165    
      -0.2403     -0.2643     -0.2841     -0.3022     -0.3169     -0.3286     -0.3378     -0.3455     -0.3543     -0.3625    
      -0.3702     -0.3775     -0.3843     -0.3915     -0.3996     -0.4078     -0.4152     -0.4216     -0.4270     -0.4311    
      -0.4340     -0.4363     -0.4385     -0.4402     -0.4398     -0.4353     -0.4237     -0.4097     -0.3948     -0.3776    
      -0.3688     -0.3680     -0.3703     -0.3760     -0.3862     -0.4006     -0.4176     -0.4349     -0.4487     -0.4540    
      -0.4477     -0.3870       0.000      -999.0    
  49   -999.0      0.5133      0.7354      0.7393      0.6965      0.6486      0.5996      0.5439      0.4768      0.3975    
       0.3098      0.2177      0.1053      7.8286E-03 -8.1056E-02 -0.1480     -0.1819     -0.2072     -0.2283     -0.2482    
      -0.2695     -0.2899     -0.3060     -0.3203     -0.3316     -0.3404     -0.3472     -0.3529     -0.3594     -0.3654    
      -0.3710     -0.3762     -0.3812     -0.3863     -0.3922     -0.3979     -0.4030     -0.4075     -0.4113     -0.4141    
      -0.4162     -0.4179     -0.4194     -0.4210     -0.4214     -0.4199     -0.4152     -0.4086     -0.4003     -0.3886    
      -0.3825     -0.3826     -0.3859     -0.3932     -0.4045     -0.4187     -0.4336     -0.4475     -0.4583     -0.4620    
      -0.4558     -0.3964       0.000      -999.0    
  50   -999.0      0.4371      0.6203      0.6420      0.6188      0.5875      0.5547      0.5168      0.4679      0.4041    
       0.3262      0.2379      0.1243      2.1248E-02 -7.6393E-02 -0.1513     -0.1901     -0.2184     -0.2409     -0.2610    
      -0.2810     -0.2990     -0.3125     -0.3239     -0.3326     -0.3392     -0.3442     -0.3484     -0.3533     -0.3577    
      -0.3618     -0.3657     -0.3693     -0.3733     -0.3776     -0.3820     -0.3860     -0.3896     -0.3927     -0.3951    
      -0.3968     -0.3984     -0.4000     -0.4018     -0.4034     -0.4039     -0.4024     -0.3994     -0.3941     -0.3849    
      -0.3806     -0.3843     -0.3931     -0.4067     -0.4224     -0.4377     -0.4510     -0.4618     -0.4697     -0.4717    
      -0.4660     -0.4082       0.000      -999.0    
  51   -999.0      0.3856      0.5330      0.5621      0.5524      0.5351      0.5190      0.5033      0.4823      0.4469    
       0.3898      0.3096      0.1910      7.4646E-02 -4.0113E-02 -0.1286     -0.1734     -0.2057     -0.2308     -0.2525    
      -0.2737     -0.2922     -0.3057     -0.3169     -0.3254     -0.3318     -0.3366     -0.3406     -0.3454     -0.3496    
      -0.3536     -0.3574     -0.3610     -0.3649     -0.3693     -0.3739     -0.3782     -0.3821     -0.3856     -0.3883    
      -0.3905     -0.3923     -0.3944     -0.3972     -0.3999     -0.4020     -0.4021     -0.3999     -0.3939     -0.3791    
      -0.3655     -0.3732     -0.3975     -0.4235     -0.4446     -0.4597     -0.4700     -0.4770     -0.4819     -0.4821    
      -0.4765     -0.4194       0.000      -999.0    
  52   -999.0      0.3523      0.4728      0.5035      0.5016      0.4941      0.4915      0.4969      0.5081      0.5150    
       0.4977      0.4365      0.3040      0.1584      1.6014E-02 -9.0369E-02 -0.1411     -0.1766     -0.2039     -0.2276    
      -0.2510     -0.2718     -0.2873     -0.3005     -0.3105     -0.3181     -0.3239     -0.3288     -0.3344     -0.3395    
      -0.3444     -0.3490     -0.3534     -0.3581     -0.3635     -0.3693     -0.3747     -0.3797     -0.3842     -0.3879    
      -0.3908     -0.3933     -0.3963     -0.4003     -0.4052     -0.4098     -0.4129     -0.4131     -0.4081     -0.3861    
      -0.3322     -0.3421     -0.4121     -0.4499     -0.4708     -0.4818     -0.4873     -0.4903     -0.4925     -0.4908    
      -0.4854     -0.4286       0.000      -999.0    
  53   -999.0      0.3290      0.4300      0.4599      0.4624      0.4614      0.4682      0.4896      0.5301      0.5881    
       0.6428      0.6345      0.4646      0.2545      7.3559E-02 -5.3013E-02 -0.1095     -0.1483     -0.1781     -0.2042    
      -0.2298     -0.2529     -0.2704     -0.2853     -0.2969     -0.3060     -0.3130     -0.3189     -0.3257     -0.3319    
      -0.3377     -0.3433     -0.3486     -0.3542     -0.3608     -0.3678     -0.3746     -0.3813     -0.3873     -0.3921    
      -0.3960     -0.3994     -0.4036     -0.4093     -0.4170     -0.4262     -0.4347     -0.4439     -0.4494     -0.4421    
      -0.4087     -0.4212     -0.4621     -0.4865     -0.4979     -0.5015     -0.5017     -0.5011     -0.5011     -0.4980    
      -0.4928     -0.4361       0.000      -999.0    
  54   -999.0      0.3103      0.3952      0.4233      0.4285      0.4318      0.4448      0.4766      0.5379      0.6442    
       0.8137      0.9885      0.6948      0.3454      0.1225     -2.1292E-02 -8.2369E-02 -0.1241     -0.1568     -0.1855    
      -0.2138     -0.2389     -0.2577     -0.2735     -0.2862     -0.2968     -0.3054     -0.3127     -0.3209     -0.3284    
      -0.3353     -0.3419     -0.3481     -0.3546     -0.3619     -0.3693     -0.3761     -0.3847     -0.3932     -0.4001    
      -0.4055     -0.4103     -0.4160     -0.4241     -0.4343     -0.4462     -0.4629     -0.4835     -0.5089     -0.5319    
      -0.5385     -0.5276     -0.5275     -0.5275     -0.5242     -0.5192     -0.5140     -0.5102     -0.5084     -0.5042    
      -0.4992     -0.4428       0.000      -999.0    
  55   -999.0      0.2927      0.3629      0.3883      0.3950      0.4010      0.4172      0.4532      0.5212      0.6431    
       0.8687       1.245      0.8153      0.3841      0.1550      5.7574E-03 -5.9444E-02 -0.1004     -0.1330     -0.1667    
      -0.1986     -0.2256     -0.2455     -0.2617     -0.2742     -0.2843     -0.2926     -0.3000     -0.3083     -0.3164    
      -0.3241     -0.3315     -0.3386     -0.3463     -0.3552     -0.3650     -0.3746     -0.3844     -0.3940     -0.4023    
      -0.4093     -0.4157     -0.4234     -0.4349     -0.4509     -0.4719     -0.4998     -0.5351     -0.5811     -0.6404    
      -0.6825     -0.6310     -0.5955     -0.5698     -0.5506     -0.5360     -0.5256     -0.5189     -0.5153     -0.5105    
      -0.5057     -0.4496       0.000      -999.0    
  56   -999.0      0.2738      0.3282      0.3497      0.3567      0.3636      0.3795      0.4115      0.4661      0.5459    
       0.6368      0.6751      0.5237      0.3186      0.1562      4.0302E-02 -3.2832E-02 -8.1640E-02 -0.1172     -0.1479    
      -0.1780     -0.2053     -0.2265     -0.2447     -0.2593     -0.2709     -0.2801     -0.2880     -0.2968     -0.3057    
      -0.3140     -0.3223     -0.3305     -0.3393     -0.3500     -0.3618     -0.3739     -0.3860     -0.3977     -0.4078    
      -0.4165     -0.4244     -0.4340     -0.4486     -0.4695     -0.4981     -0.5364     -0.5862     -0.6555     -0.7632    
      -0.8760     -0.7413     -0.6622     -0.6108     -0.5760     -0.5526     -0.5371     -0.5276     -0.5225     -0.5178    
      -0.5132     -0.4574       0.000      -999.0    
  57   -999.0      0.2528      0.2906      0.3063      0.3114      0.3165      0.3275      0.3468      0.3730      0.3971    
       0.4029      0.3751      0.2960      0.1977      0.1012      2.2593E-02 -3.6585E-02 -8.0518E-02 -0.1137     -0.1423    
      -0.1707     -0.1973     -0.2183     -0.2368     -0.2520     -0.2641     -0.2740     -0.2822     -0.2917     -0.3011    
      -0.3100     -0.3190     -0.3278     -0.3376     -0.3492     -0.3622     -0.3756     -0.3890     -0.4020     -0.4133    
      -0.4228     -0.4316     -0.4424     -0.4587     -0.4824     -0.5142     -0.5567     -0.6106     -0.6843     -0.7979    
      -0.9126     -0.7743     -0.6914     -0.6348     -0.5947     -0.5667     -0.5480     -0.5365     -0.5303     -0.5262    
      -0.5223     -0.4668       0.000      -999.0    
  58   -999.0      0.2295      0.2497      0.2575      0.2583      0.2584      0.2601      0.2625      0.2617      0.2519    
       0.2295      0.1949      0.1411      8.3554E-02  2.4980E-02 -2.7273E-02 -7.0005E-02 -0.1041     -0.1311     -0.1551    
      -0.1796     -0.2032     -0.2225     -0.2398     -0.2542     -0.2659     -0.2754     -0.2836     -0.2927     -0.3019    
      -0.3110     -0.3198     -0.3286     -0.3383     -0.3499     -0.3630     -0.3763     -0.3897     -0.4026     -0.4138    
      -0.4232     -0.4316     -0.4421     -0.4577     -0.4800     -0.5087     -0.5443     -0.5847     -0.6322     -0.6887    
      -0.7226     -0.6882     -0.6566     -0.6259     -0.5974     -0.5736     -0.5557     -0.5441     -0.5382     -0.5357    
      -0.5326     -0.4778       0.000      -999.0    
  59   -999.0      0.2033      0.2051      0.2027      0.1968      0.1892      0.1801      0.1676      0.1501      0.1265    
       9.8086E-02  6.6520E-02  2.6054E-02 -1.3048E-02 -5.1896E-02 -8.7468E-02 -0.1178     -0.1429     -0.1634     -0.1822    
      -0.2020     -0.2216     -0.2380     -0.2528     -0.2654     -0.2758     -0.2842     -0.2915     -0.2997     -0.3081    
      -0.3162     -0.3242     -0.3322     -0.3410     -0.3516     -0.3635     -0.3756     -0.3876     -0.3991     -0.4089    
      -0.4170     -0.4244     -0.4333     -0.4467     -0.4650     -0.4877     -0.5141     -0.5413     -0.5700     -0.6008    
      -0.6201     -0.6178     -0.6102     -0.5992     -0.5853     -0.5710     -0.5589     -0.5506     -0.5465     -0.5460    
      -0.5442     -0.4895       0.000      -999.0    
  60   -999.0      0.1735      0.1559      0.1416      0.1267      0.1106      9.2192E-02  7.0690E-02  4.6133E-02  1.9499E-02
      -7.6548E-03 -3.4259E-02 -6.5848E-02 -9.4588E-02 -0.1221     -0.1474     -0.1692     -0.1877     -0.2032     -0.2176    
      -0.2329     -0.2484     -0.2616     -0.2737     -0.2840     -0.2926     -0.2996     -0.3055     -0.3124     -0.3193    
      -0.3261     -0.3327     -0.3394     -0.3468     -0.3557     -0.3656     -0.3756     -0.3856     -0.3950     -0.4030    
      -0.4096     -0.4154     -0.4227     -0.4335     -0.4480     -0.4654     -0.4851     -0.5044     -0.5241     -0.5466    
      -0.5654     -0.5710     -0.5714     -0.5702     -0.5669     -0.5626     -0.5582     -0.5549     -0.5544     -0.5566    
      -0.5575     -0.5027       0.000      -999.0    
  61   -999.0      0.1384      0.1003      7.2646E-02  4.8426E-02  2.4826E-02  7.2880E-04 -2.4216E-02 -4.9484E-02 -7.4217E-02
      -9.7343E-02 -0.1189     -0.1434     -0.1650     -0.1853     -0.2039     -0.2202     -0.2340     -0.2456     -0.2565    
      -0.2683     -0.2802     -0.2905     -0.2998     -0.3075     -0.3140     -0.3192     -0.3236     -0.3288     -0.3340    
      -0.3392     -0.3443     -0.3495     -0.3551     -0.3620     -0.3697     -0.3774     -0.3852     -0.3925     -0.3985    
      -0.4036     -0.4081     -0.4137     -0.4219     -0.4332     -0.4466     -0.4617     -0.4765     -0.4925     -0.5123    
      -0.5312     -0.5388     -0.5426     -0.5463     -0.5495     -0.5520     -0.5541     -0.5569     -0.5612     -0.5675    
      -0.5723     -0.5199       0.000      -999.0    
  62   -999.0      9.4069E-02  3.4679E-02 -6.1614E-03 -3.9035E-02 -6.7826E-02 -9.4030E-02 -0.1182     -0.1402     -0.1600    
      -0.1776     -0.1931     -0.2104     -0.2256     -0.2403     -0.2537     -0.2652     -0.2750     -0.2832     -0.2908    
      -0.2991     -0.3075     -0.3147     -0.3213     -0.3270     -0.3317     -0.3356     -0.3389     -0.3428     -0.3467    
      -0.3505     -0.3543     -0.3581     -0.3623     -0.3673     -0.3731     -0.3789     -0.3846     -0.3900     -0.3947    
      -0.3984     -0.4019     -0.4062     -0.4125     -0.4213     -0.4319     -0.4442     -0.4565     -0.4704     -0.4884    
      -0.5068     -0.5156     -0.5209     -0.5271     -0.5337     -0.5407     -0.5482     -0.5568     -0.5675     -0.5792    
      -0.5889     -0.5406       0.000      -999.0    
  63   -999.0      6.0083E-02 -3.5931E-03 -4.9684E-02 -8.5993E-02 -0.1163     -0.1424     -0.1649     -0.1842     -0.2007    
      -0.2146     -0.2265     -0.2392     -0.2526     -0.2657     -0.2769     -0.2862     -0.2939     -0.3002     -0.3061    
      -0.3125     -0.3191     -0.3248     -0.3300     -0.3345     -0.3383     -0.3414     -0.3442     -0.3473     -0.3504    
      -0.3535     -0.3565     -0.3595     -0.3629     -0.3670     -0.3717     -0.3763     -0.3810     -0.3855     -0.3892    
      -0.3923     -0.3951     -0.3988     -0.4041     -0.4116     -0.4206     -0.4313     -0.4422     -0.4543     -0.4701    
      -0.4852     -0.4943     -0.5016     -0.5097     -0.5188     -0.5290     -0.5412     -0.5560     -0.5732     -0.5909    
      -0.6051     -0.5609       0.000      -999.0    
  64   -999.0      1.7855E-02 -4.0298E-02 -8.4851E-02 -0.1203     -0.1497     -0.1741     -0.1947     -0.2119     -0.2263    
      -0.2383     -0.2485     -0.2593     -0.2707     -0.2813     -0.2900     -0.2968     -0.3020     -0.3063     -0.3103    
      -0.3148     -0.3194     -0.3236     -0.3276     -0.3312     -0.3343     -0.3369     -0.3391     -0.3418     -0.3446    
      -0.3472     -0.3499     -0.3525     -0.3554     -0.3589     -0.3628     -0.3666     -0.3704     -0.3740     -0.3769    
      -0.3794     -0.3816     -0.3845     -0.3887     -0.3945     -0.4014     -0.4094     -0.4176     -0.4267     -0.4390    
      -0.4509     -0.4587     -0.4654     -0.4741     -0.4853     -0.4995     -0.5171     -0.5358     -0.5524     -0.5719    
      -0.5862     -0.5493       0.000      -999.0    
  65   -999.0       0.000       0.000       0.000       0.000       0.000       0.000       0.000       0.000       0.000    
        0.000       0.000       0.000       0.000       0.000       0.000       0.000       0.000       0.000       0.000    
        0.000       0.000       0.000       0.000       0.000       0.000       0.000       0.000       0.000       0.000    
        0.000       0.000       0.000       0.000       0.000       0.000       0.000       0.000       0.000       0.000    
        0.000       0.000       0.000       0.000       0.000       0.000       0.000       0.000       0.000       0.000    
        0.000       0.000       0.000       0.000       0.000       0.000       0.000       0.000       0.000       0.000    
        0.000       0.000       0.000      -999.0    
  66   -999.0      -999.0      -999.0      -999.0      -999.0      -999.0      -999.0      -999.0      -999.0      -999.0    
       -999.0      -999.0      -999.0      -999.0      -999.0      -999.0      -999.0      -999.0      -999.0      -999.0    
       -999.0      -999.0      -999.0      -999.0      -999.0      -999.0      -999.0      -999.0      -999.0      -999.0    
       -999.0      -999.0      -999.0      -999.0      -999.0      -999.0      -999.0      -999.0      -999.0      -999.0    
       -999.0      -999.0      -999.0      -999.0      -999.0      -999.0      -999.0      -999.0      -999.0      -999.0    
       -999.0      -999.0      -999.0      -999.0      -999.0      -999.0      -999.0      -999.0      -999.0      -999.0    
       -999.0      -999.0      -999.0      -999.0    

 DRAWDOWN WILL BE SAVED ON UNIT   35 AT END OF TIME STEP   1, STRESS PERIOD    1
1
  VOLUMETRIC BUDGET FOR ENTIRE MODEL AT END OF TIME STEP  1 IN STRESS PERIOD   1
  ------------------------------------------------------------------------------

     CUMULATIVE VOLUMES      L**3       RATES FOR THIS TIME STEP      L**3/T
     ------------------                 ------------------------

           IN:                                      IN:
           ---                                      ---
             STORAGE =    31920560.0000               STORAGE =     6384112.0000
       CONSTANT HEAD =      133845.0469         CONSTANT HEAD =       26769.0098
               WELLS =   353618752.0000                 WELLS =    70723752.0000
            RECHARGE =    64056780.0000              RECHARGE =    12811356.0000

            TOTAL IN =   449729920.0000              TOTAL IN =    89945984.0000

          OUT:                                     OUT:
          ----                                     ----
             STORAGE =    33912900.0000               STORAGE =     6782580.0000
       CONSTANT HEAD =    62198208.0000         CONSTANT HEAD =    12439642.0000
               WELLS =   353618752.0000                 WELLS =    70723752.0000
            RECHARGE =           0.0000              RECHARGE =           0.0000

           TOTAL OUT =   449729856.0000             TOTAL OUT =    89945976.0000

            IN - OUT =          64.0000              IN - OUT =           8.0000

 PERCENT DISCREPANCY =           0.00     PERCENT DISCREPANCY =           0.00






          TIME SUMMARY AT END OF TIME STEP   1 IN STRESS PERIOD    1
                    SECONDS     MINUTES      HOURS       DAYS        YEARS
                    -----------------------------------------------------------
   TIME STEP LENGTH 1.57788E+08 2.62980E+06  43830.      1826.2      5.0000    
 STRESS PERIOD TIME 1.57788E+08 2.62980E+06  43830.      1826.2      5.0000    
         TOTAL TIME 1.57788E+08 2.62980E+06  43830.      1826.2      5.0000    
1
