                                  MODFLOW-2000
      U.S. GEOLOGICAL SURVEY MODULAR FINITE-DIFFERENCE GROUND-WATER FLOW MODEL
                             VERSION 1.10 07/26/2002


 This model run combines GLOBAL and LIST output into this single file.

 GLOBAL LISTING FILE: optdemo_coarse.lst
                         UNIT   26

 OPENING TEST_coarse.ba6
 FILE TYPE:BAS6   UNIT    1   STATUS:OLD    
 FORMAT:FORMATTED              ACCESS:SEQUENTIAL          

 OPENING TEST_coarse.bc6
 FILE TYPE:BCF6   UNIT   11   STATUS:OLD    
 FORMAT:FORMATTED              ACCESS:SEQUENTIAL          

 OPENING optdemo_coarse.oc
 FILE TYPE:OC   UNIT   10   STATUS:OLD    
 FORMAT:FORMATTED              ACCESS:SEQUENTIAL          

 OPENING optdemo_coarse.ufh
 FILE TYPE:DATA(BINARY)   UNIT   30   STATUS:UNKNOWN
 FORMAT:UNFORMATTED            ACCESS:SEQUENTIAL          

 OPENING optdemo_coarse.ccf
 FILE TYPE:DATA(BINARY)   UNIT   40   STATUS:UNKNOWN
 FORMAT:UNFORMATTED            ACCESS:SEQUENTIAL          

 OPENING head2002_coarse.ufh
 FILE TYPE:DATA(BINARY)   UNIT   51   STATUS:UNKNOWN
 FORMAT:UNFORMATTED            ACCESS:SEQUENTIAL          

 OPENING optdemo_coarse.pcg
 FILE TYPE:PCG   UNIT   12   STATUS:OLD    
 FORMAT:FORMATTED              ACCESS:SEQUENTIAL          

 OPENING optdemo.wel
 FILE TYPE:WEL   UNIT   13   STATUS:OLD    
 FORMAT:FORMATTED              ACCESS:SEQUENTIAL          

 OPENING optdemo_coarse.rch
 FILE TYPE:RCH   UNIT   20   STATUS:OLD    
 FORMAT:FORMATTED              ACCESS:SEQUENTIAL          

 OPENING optdemo_coarse.lmt
 FILE TYPE:LMT6   UNIT   29   STATUS:OLD    
 FORMAT:FORMATTED              ACCESS:SEQUENTIAL          

 OPENING TEST_coarse.dis
 FILE TYPE:DIS   UNIT   14   STATUS:OLD    
 FORMAT:FORMATTED              ACCESS:SEQUENTIAL          

 THE FREE FORMAT OPTION HAS BEEN SELECTED

 DISCRETIZATION INPUT DATA READ FROM UNIT   14
    5 LAYERS        66 ROWS        64 COLUMNS
    1 STRESS PERIOD(S) IN SIMULATION
 MODEL TIME UNIT IS YEARS
 MODEL LENGTH UNIT IS UNDEFINED
 THE GROUND-WATER TRANSPORT PROCESS IS INACTIVE

 THE OBSERVATION PROCESS IS INACTIVE
 THE SENSITIVITY PROCESS IS INACTIVE
 THE PARAMETER-ESTIMATION PROCESS IS INACTIVE

 MODE: FORWARD

  Confining bed flag for each layer:
   0   0   0   0   0

     190210  ELEMENTS OF GX ARRAY USED OUT OF     190210
      21120  ELEMENTS OF GZ ARRAY USED OUT OF      21120
      21120  ELEMENTS OF IG ARRAY USED OUT OF      21120



                               DELR
 READING ON UNIT   14 WITH FORMAT: (10F13.0)           



                               DELC
 READING ON UNIT   14 WITH FORMAT: (10F13.0)           

 TOP ELEVATION OF LAYER 1 =   999.000    



             MODEL LAYER BOTTOM EL. FOR LAYER   1
 READING ON UNIT   14 WITH FORMAT: (10F13.0)           

            1           2           3           4           5           6           7           8           9          10
           11          12          13          14          15          16          17          18          19          20
           21          22          23          24          25          26          27          28          29          30
           31          32          33          34          35          36          37          38          39          40
           41          42          43          44          45          46          47          48          49          50
           51          52          53          54          55          56          57          58          59          60
           61          62          63          64
 ........................................................................................................................
   1    0.000       0.000       0.000       0.000       0.000       0.000       0.000       0.000       0.000       0.000    
        0.000       0.000       0.000       0.000       0.000       0.000       0.000       0.000       0.000       0.000    
        0.000       0.000       0.000       0.000       0.000       0.000       0.000       0.000       0.000       0.000    
        0.000       0.000       0.000       0.000       0.000       0.000       0.000       0.000       0.000       0.000    
        0.000       0.000       0.000       0.000       0.000       0.000       0.000       0.000       0.000       0.000    
        0.000       0.000       0.000       0.000       0.000       0.000       0.000       0.000       0.000       0.000    
        0.000       0.000       0.000       0.000    
   2    0.000       489.2       488.7       488.5       488.5       488.5       488.5       488.5       488.5       488.5    
        488.5       488.5       488.4       488.4       488.4       488.3       488.3       488.3       488.3       488.2    
        488.2       488.2       488.2       488.2       488.2       488.1       488.1       488.1       488.1       488.1    
        488.1       488.1       488.1       488.1       488.1       488.1       488.1       488.0       488.0       488.0    
        488.0       488.0       488.0       488.0       488.0       488.0       487.9       487.9       487.9       487.8    
        487.8       487.8       487.7       487.7       487.6       487.6       487.5       487.4       487.2       486.9    
        486.6       486.0       485.6       0.000    
   3    0.000       491.1       491.0       490.8       490.7       490.7       490.7       490.7       490.6       490.6    
        490.6       490.6       490.6       490.5       490.5       490.5       490.5       490.4       490.4       490.4    
        490.4       490.4       490.4       490.4       490.4       490.4       490.4       490.4       490.4       490.4    
        490.4       490.4       490.4       490.4       490.4       490.4       490.4       490.4       490.4       490.4    
        490.4       490.4       490.4       490.4       490.4       490.4       490.4       490.4       490.4       490.4    
        490.4       490.4       490.4       490.3       490.3       490.3       490.2       490.2       490.0       489.8    
        489.4       488.6       488.2       0.000    
   4    0.000       492.7       492.7       492.6       492.5       492.4       492.4       492.3       492.3       492.2    
        492.2       492.1       492.1       492.1       492.0       492.0       492.0       492.0       492.0       492.0    
        492.0       492.0       492.0       492.0       492.0       492.0       492.0       492.0       492.0       492.0    
        492.0       492.0       492.1       492.1       492.1       492.1       492.1       492.1       492.1       492.1    
        492.1       492.1       492.1       492.1       492.1       492.2       492.2       492.2       492.2       492.2    
        492.3       492.3       492.3       492.3       492.4       492.4       492.4       492.4       492.3       492.1    
        491.7       491.0       490.6       0.000    
   5    0.000       493.6       493.8       493.8       493.7       493.6       493.4       493.3       493.2       493.1    
        493.1       493.0       493.0       492.9       492.9       492.9       492.9       492.9       492.9       492.9    
        492.9       492.9       492.9       492.9       492.9       492.9       493.0       493.0       493.0       493.0    
        493.0       493.0       493.0       493.0       493.0       493.0       493.0       493.0       493.1       493.1    
        493.1       493.1       493.1       493.1       493.2       493.2       493.2       493.3       493.3       493.4    
        493.4       493.5       493.5       493.5       493.6       493.7       493.7       493.7       493.7       493.6    
        493.2       492.7       492.5       0.000    
   6    0.000       494.2       494.4       494.5       494.4       494.2       494.1       493.9       493.7       493.6    
        493.5       493.4       493.3       493.3       493.2       493.2       493.2       493.2       493.2       493.3    
        493.3       493.3       493.3       493.3       493.3       493.3       493.4       493.4       493.4       493.4    
        493.4       493.4       493.4       493.4       493.4       493.5       493.5       493.5       493.5       493.5    
        493.5       493.6       493.6       493.6       493.6       493.7       493.7       493.8       493.8       493.9    
        494.0       494.1       494.1       494.2       494.3       494.3       494.4       494.5       494.5       494.4    
        494.1       493.9       493.8       0.000    
   7    0.000       494.6       494.7       494.8       494.8       494.6       494.3       494.1       493.8       493.7    
        493.5       493.4       493.3       493.3       493.2       493.2       493.1       493.1       493.1       493.1    
        493.1       493.2       493.2       493.2       493.2       493.3       493.3       493.3       493.3       493.3    
        493.3       493.4       493.4       493.4       493.4       493.5       493.5       493.5       493.6       493.6    
        493.6       493.6       493.7       493.7       493.8       493.8       493.9       494.0       494.0       494.1    
        494.2       494.3       494.4       494.5       494.6       494.7       494.8       494.8       494.9       494.8    
        494.7       494.6       494.6       0.000    
   8    0.000       494.8       494.9       495.0       494.9       494.7       494.4       494.1       493.8       493.6    
        493.4       493.3       493.2       493.1       493.0       492.9       492.8       492.8       492.8       492.8    
        492.8       492.8       492.8       492.9       492.9       492.9       492.9       492.9       493.0       493.0    
        493.0       493.0       493.0       493.1       493.1       493.1       493.2       493.2       493.3       493.3    
        493.3       493.3       493.4       493.4       493.5       493.6       493.7       493.8       493.9       494.1    
        494.2       494.3       494.4       494.6       494.7       494.8       494.9       495.0       495.0       495.0    
        494.9       494.9       494.9       0.000    
   9    0.000       494.9       495.0       495.0       495.0       494.7       494.4       494.0       493.7       493.4    
        493.2       493.1       492.9       492.7       492.6       492.5       492.5       492.4       492.4       492.4    
        492.4       492.4       492.4       492.4       492.4       492.5       492.5       492.5       492.5       492.5    
        492.5       492.6       492.6       492.6       492.6       492.7       492.7       492.8       492.8       492.8    
        492.9       492.9       492.9       493.0       493.1       493.2       493.3       493.4       493.6       493.8    
        493.9       494.1       494.2       494.4       494.6       494.7       494.9       495.0       495.0       495.0    
        495.0       495.0       494.7       0.000    
  10    0.000       495.0       495.0       495.0       494.9       494.6       494.2       493.8       493.4       493.2    
        492.9       492.7       492.6       492.4       492.2       492.1       492.0       492.0       491.9       491.9    
        491.9       491.9       491.9       491.9       491.9       491.9       492.0       492.0       492.0       492.0    
        492.0       492.1       492.1       492.1       492.1       492.2       492.2       492.3       492.3       492.3    
        492.4       492.4       492.4       492.5       492.6       492.7       492.8       493.0       493.2       493.4    
        493.6       493.8       493.9       494.1       494.4       494.6       494.9       495.0       494.9       494.7    
        494.5       494.8       494.2       0.000    
  11    0.000       495.0       495.0       495.0       494.8       494.3       493.9       493.5       493.1       492.8    
        492.6       492.4       492.2       492.0       491.8       491.7       491.6       491.5       491.5       491.4    
        491.4       491.4       491.4       491.4       491.4       491.5       491.5       491.5       491.5       491.5    
        491.6       491.6       491.6       491.6       491.6       491.7       491.7       491.8       491.8       491.8    
        491.9       491.9       491.9       492.0       492.1       492.2       492.4       492.5       492.7       493.0    
        493.2       493.4       493.6       493.9       494.2       494.6       494.9       495.0       494.7       494.1    
        493.6       494.5       493.7       0.000    
  12    0.000       495.0       495.0       495.0       494.7       494.1       493.5       492.9       492.6       492.3    
        492.1       491.9       491.7       491.6       491.4       491.3       491.2       491.1       491.1       491.1    
        491.0       491.0       491.0       491.0       491.0       491.0       491.1       491.1       491.1       491.1    
        491.1       491.1       491.2       491.2       491.2       491.2       491.3       491.3       491.4       491.4    
        491.4       491.4       491.5       491.5       491.6       491.8       491.9       492.1       492.3       492.6    
        492.8       493.1       493.4       493.8       494.2       494.7       495.0       495.0       494.2       493.1    
        492.4       494.1       493.2       0.000    
  13    0.000       494.9       494.9       494.9       494.7       494.0       493.1       492.4       491.9       491.6    
        491.4       491.3       491.2       491.1       491.0       491.0       490.9       490.8       490.8       490.7    
        490.7       490.7       490.7       490.7       490.7       490.7       490.7       490.7       490.7       490.8    
        490.8       490.8       490.8       490.8       490.8       490.9       490.9       490.9       491.0       491.0    
        491.0       491.0       491.1       491.1       491.2       491.3       491.5       491.7       491.9       492.2    
        492.5       492.9       493.3       493.8       494.3       494.8       495.0       494.8       493.6       492.0    
        491.2       493.7       492.7       0.000    
  14    0.000       494.8       494.7       494.8       494.6       493.9       492.9       491.9       491.2       490.8    
        490.6       490.5       490.5       490.6       490.6       490.6       490.6       490.6       490.5       490.5    
        490.5       490.5       490.5       490.5       490.5       490.5       490.5       490.5       490.5       490.5    
        490.5       490.5       490.5       490.5       490.6       490.6       490.6       490.6       490.6       490.6    
        490.7       490.7       490.7       490.8       490.8       491.0       491.1       491.3       491.5       491.9    
        492.4       492.8       493.3       493.8       494.3       494.8       495.0       494.6       492.9       490.8    
        490.1       493.3       492.3       0.000    
  15    0.000       494.8       494.6       494.7       494.5       493.8       492.7       491.6       490.7       490.1    
        489.8       489.6       489.6       489.7       490.0       490.2       490.3       490.3       490.3       490.3    
        490.3       490.3       490.3       490.3       490.3       490.4       490.4       490.4       490.4       490.4    
        490.4       490.4       490.4       490.3       490.3       490.3       490.3       490.3       490.3       490.3    
        490.4       490.4       490.4       490.4       490.5       490.6       490.7       490.9       491.2       491.6    
        492.2       492.7       493.2       493.8       494.3       494.8       495.0       494.4       492.2       489.7    
        489.3       492.9       491.9       0.000    
  16    0.000       494.7       494.3       494.5       494.3       493.7       492.5       491.3       490.2       489.5    
        489.0       488.8       488.6       488.7       489.0       489.4       489.6       489.8       490.0       490.1    
        490.2       490.2       490.3       490.3       490.3       490.3       490.3       490.3       490.3       490.2    
        490.2       490.2       490.1       490.1       490.0       489.9       489.9       489.9       489.9       489.9    
        489.9       489.9       489.9       489.9       490.0       490.1       490.3       490.5       490.8       491.3    
        491.9       492.5       493.0       493.7       494.3       494.8       495.0       494.0       491.4       488.6    
        488.6       492.6       491.5       0.000    
  17    0.000       494.5       494.0       494.2       494.1       493.5       492.3       491.0       489.8       488.8    
        488.2       487.7       487.4       487.3       487.4       488.0       488.4       488.8       489.0       489.3    
        489.5       489.8       490.0       490.5       490.6       490.4       490.2       490.1       490.0       489.8    
        489.7       489.5       489.4       489.2       489.0       488.9       488.9       488.8       488.8       488.9    
        488.9       488.9       488.9       489.0       489.1       489.3       489.5       489.8       490.2       490.8    
        491.5       492.1       492.7       493.4       494.1       494.7       495.0       493.5       490.3       487.1    
        488.0       492.1       491.1       0.000    
  18    0.000       494.4       493.6       493.8       493.7       493.2       492.1       490.7       489.4       488.2    
        487.4       486.8       486.3       486.0       485.9       486.2       486.8       487.3       487.7       488.1    
        488.5       488.9       489.4       490.3       490.8       490.8       490.4       489.9       489.4       489.0    
        488.6       488.3       487.9       487.6       487.3       487.2       487.1       487.2       487.3       487.4    
        487.4       487.5       487.6       487.7       487.9       488.2       488.5       488.9       489.4       490.1    
        490.9       491.6       492.3       493.1       493.9       494.6       494.9       492.9       489.0       485.5    
        487.5       491.6       490.6       0.000    
  19    0.000       494.3       493.3       493.6       493.5       493.0       492.0       490.5       489.1       487.9    
        487.0       486.3       485.7       485.2       484.9       485.0       485.7       486.2       486.6       487.1    
        487.6       488.1       488.8       489.8       490.4       490.6       490.6       490.0       489.2       488.3    
        487.7       487.1       486.5       486.0       485.7       485.6       485.6       485.8       486.0       486.1    
        486.2       486.3       486.5       486.7       487.0       487.3       487.7       488.2       488.7       489.5    
        490.4       491.2       491.9       492.8       493.7       494.5       494.7       492.4       488.2       484.4    
        487.3       491.3       490.3       0.000    
  20    0.000       494.2       493.0       493.3       493.2       492.8       491.8       490.4       488.9       487.7    
        486.7       485.9       485.1       484.5       484.0       483.9       484.5       485.0       485.5       486.0    
        486.5       487.2       488.0       489.1       489.6       489.8       489.7       489.7       489.1       487.9    
        486.7       485.8       485.0       484.3       483.8       483.8       483.9       484.2       484.5       484.7    
        484.9       485.0       485.2       485.5       485.9       486.3       486.8       487.4       488.0       488.9    
        489.8       490.7       491.5       492.5       493.5       494.3       494.4       491.9       487.2       483.2    
        487.0       490.9       490.0       0.000    
  21    0.000       494.1       492.8       493.0       492.9       492.5       491.7       490.2       488.8       487.5    
        486.4       485.5       484.7       483.9       483.3       483.0       483.4       484.0       484.5       485.0    
        485.6       486.3       487.2       488.2       488.7       488.7       488.3       488.2       488.3       487.7    
        486.2       484.8       483.7       482.8       482.2       482.2       482.4       482.8       483.1       483.4    
        483.6       483.8       484.1       484.4       484.9       485.4       486.0       486.6       487.3       488.2    
        489.2       490.2       491.1       492.2       493.2       494.1       494.1       491.4       486.4       482.3    
        486.8       490.6       489.7       0.000    
  22    0.000       494.0       492.5       492.7       492.7       492.3       491.5       490.1       488.6       487.3    
        486.2       485.3       484.4       483.6       482.8       482.4       482.6       483.2       483.7       484.2    
        484.8       485.4       486.4       487.5       488.0       487.8       487.0       486.4       486.9       486.5    
        485.7       484.3       482.9       481.7       480.9       480.9       481.2       481.6       481.9       482.3    
        482.5       482.8       483.1       483.5       484.0       484.6       485.3       485.9       486.6       487.6    
        488.7       489.8       490.8       491.9       493.0       493.9       493.8       490.9       485.7       481.4    
        486.7       490.4       489.4       0.000    
  23    0.000       493.9       492.4       492.5       492.5       492.1       491.3       490.0       488.5       487.2    
        486.1       485.1       484.2       483.3       482.4       481.9       481.9       482.5       483.0       483.5    
        484.0       484.7       485.7       486.8       487.3       487.0       486.1       485.1       485.0       485.9    
        484.4       483.5       482.3       480.9       479.9       479.9       480.2       480.5       480.9       481.3    
        481.6       481.9       482.2       482.6       483.2       483.9       484.6       485.2       486.0       487.0    
        488.2       489.4       490.4       491.6       492.8       493.6       493.5       490.5       485.0       480.7    
        486.5       490.1       489.2       0.000    
  24    0.000       493.8       492.2       492.2       492.2       491.9       491.2       489.8       488.4       487.0    
        485.9       485.0       484.0       483.0       482.1       481.4       481.3       481.8       482.3       482.7    
        483.3       483.9       484.9       486.1       486.6       486.2       485.2       484.3       483.7       485.4    
        484.0       482.0       481.2       480.1       479.0       478.9       479.2       479.6       480.0       480.4    
        480.7       481.0       481.3       481.8       482.4       483.1       483.8       484.5       485.3       486.4    
        487.7       488.9       490.1       491.3       492.5       493.3       493.1       490.0       484.3       480.0    
        486.4       489.9       489.0       0.000    
  25    0.000       493.7       492.0       491.9       492.0       491.7       491.0       489.7       488.3       486.9    
        485.8       484.9       483.9       482.8       481.8       481.0       480.7       481.1       481.6       482.0    
        482.6       483.1       484.2       485.5       485.9       485.5       484.4       483.7       483.3       482.3    
        485.1       481.3       479.6       478.9       478.2       478.1       478.4       478.7       479.1       479.5    
        479.8       480.1       480.4       480.9       481.6       482.3       483.0       483.7       484.5       485.8    
        487.2       488.5       489.7       491.0       492.2       493.0       492.8       489.5       483.6       479.2    
        486.2       489.7       488.8       0.000    
  26    0.000       493.6       491.8       491.6       491.7       491.4       490.8       489.6       488.1       486.8    
        485.7       484.7       483.7       482.7       481.6       480.7       480.2       480.5       480.9       481.3    
        481.8       482.4       483.6       484.9       485.2       484.6       483.7       482.9       482.0       480.3    
        481.4       483.3       478.7       477.4       477.0       477.3       477.6       477.9       478.3       478.7    
        479.0       479.3       479.6       480.1       480.8       481.5       482.2       482.9       483.8       485.1    
        486.7       488.0       489.3       490.7       491.9       492.7       492.4       489.0       482.9       478.5    
        486.1       489.4       488.6       0.000    
  27    0.000       493.5       491.6       491.3       491.4       491.2       490.6       489.4       488.0       486.7    
        485.6       484.6       483.6       482.5       481.4       480.4       479.8       479.9       480.3       480.7    
        481.1       481.7       483.1       484.3       484.6       483.9       483.1       482.4       480.7       479.4    
        474.6       477.7       480.3       476.5       475.8       476.3       476.8       477.2       477.6       477.9    
        478.2       478.5       478.8       479.3       479.9       480.6       481.4       482.1       482.9       484.4    
        486.1       487.6       488.9       490.3       491.5       492.3       492.0       488.5       482.2       477.7    
        485.9       489.2       488.3       0.000    
  28    0.000       493.4       491.3       491.0       491.1       490.9       490.3       489.3       487.9       486.6    
        485.5       484.5       483.5       482.5       481.3       480.2       479.5       479.4       479.7       480.1    
        480.4       481.2       482.7       483.9       484.1       483.5       482.8       482.0       480.3       479.2    
        475.2       469.5       473.9       477.0       475.0       475.3       475.9       476.5       476.9       477.2    
        477.5       477.7       478.0       478.5       479.1       479.8       480.5       481.1       482.1       483.7    
        485.5       487.0       488.4       489.8       491.0       491.9       491.5       487.9       481.5       476.9    
        485.8       488.9       488.1       0.000    
  29    0.000       493.3       491.1       490.6       490.8       490.6       490.1       489.1       487.7       486.4    
        485.4       484.4       483.5       482.4       481.2       480.0       479.2       478.9       479.2       479.5    
        479.8       480.9       482.5       483.6       483.7       483.3       482.7       481.7       480.2       479.3    
        477.2       468.9       468.0       472.7       474.6       474.6       475.1       475.7       476.1       476.5    
        476.8       477.0       477.3       477.7       478.3       478.8       479.5       480.2       481.2       483.0    
        484.9       486.5       487.9       489.4       490.6       491.5       491.0       487.2       480.7       476.2    
        485.6       488.7       487.9       0.000    
  30    0.000       493.2       490.9       490.3       490.4       490.3       489.8       488.9       487.6       486.3    
        485.3       484.4       483.4       482.4       481.2       480.0       479.0       478.5       478.8       479.0    
        479.4       480.8       482.5       483.5       483.6       483.2       482.6       481.5       480.4       479.6    
        478.7       477.3       473.3       471.2       473.5       474.3       474.5       474.9       475.4       475.8    
        476.1       476.3       476.6       476.9       477.4       477.9       478.5       479.2       480.3       482.2    
        484.2       485.9       487.4       488.8       490.1       491.0       490.5       486.6       479.9       475.4    
        485.4       488.4       487.6       0.000    
  31    0.000       493.1       490.7       489.9       490.1       490.0       489.6       488.7       487.4       486.2    
        485.2       484.3       483.4       482.3       481.2       480.0       478.8       478.3       478.4       478.6    
        479.1       480.9       482.7       483.5       483.6       483.2       482.4       481.5       480.6       479.8    
        479.1       478.9       477.5       470.2       471.9       474.2       474.3       474.5       474.8       475.1    
        475.4       475.6       475.9       476.2       476.6       477.0       477.5       478.2       479.4       481.5    
        483.6       485.3       486.8       488.3       489.6       490.6       490.0       486.0       479.2       474.7    
        485.2       488.1       487.4       0.000    
  32    0.000       493.0       490.5       489.5       489.7       489.7       489.3       488.5       487.3       486.1    
        485.1       484.2       483.3       482.3       481.3       480.1       478.8       478.1       478.1       478.3    
        479.1       481.2       482.9       483.6       483.7       483.3       482.5       481.7       480.7       479.4    
        478.1       476.6       473.5       469.1       469.2       473.6       474.1       474.2       474.4       474.6    
        474.8       475.0       475.2       475.5       475.7       476.0       476.4       477.2       478.5       480.7    
        482.9       484.7       486.2       487.7       489.1       490.1       489.5       485.3       478.4       474.0    
        485.0       487.9       487.2       0.000    
  33    0.000       492.8       490.3       489.2       489.4       489.3       489.0       488.3       487.1       485.9    
        485.0       484.1       483.3       482.3       481.3       480.2       478.8       478.0       477.9       478.0    
        479.3       481.8       483.3       483.8       483.8       483.3       482.7       482.0       481.0       479.7    
        478.2       476.2       473.3       469.9       468.3       471.7       473.8       474.1       474.2       474.3    
        474.4       474.5       474.6       474.8       474.9       475.1       475.4       476.2       477.6       479.9    
        482.2       484.0       485.5       487.1       488.6       489.6       488.9       484.6       477.7       473.4    
        484.8       487.6       486.9       0.000    
  34    0.000       492.7       490.0       488.8       489.0       489.0       488.7       488.0       486.9       485.8    
        484.9       484.1       483.2       482.4       481.4       480.3       479.0       477.9       477.7       477.9    
        479.9       482.5       483.7       484.0       483.8       483.4       482.9       482.3       481.4       480.1    
        478.6       476.4       473.8       470.7       468.8       469.4       473.2       473.8       474.0       474.1    
        474.2       474.2       474.2       474.2       474.1       474.1       474.4       475.2       476.7       479.1    
        481.4       483.3       484.9       486.6       488.1       489.1       488.4       483.9       476.9       472.8    
        484.6       487.4       486.7       0.000    
  35    0.000       492.6       489.8       488.4       488.6       488.6       488.4       487.8       486.8       485.7    
        484.8       484.0       483.2       482.4       481.5       480.5       479.2       478.0       477.6       478.2    
        481.2       483.4       483.9       484.0       483.7       483.2       482.6       481.9       480.8       479.5    
        477.8       475.9       473.7       471.2       469.4       469.0       471.9       473.4       473.8       473.9    
        473.9       473.9       473.8       473.6       473.4       473.2       473.3       474.3       475.9       478.3    
        480.6       482.5       484.2       486.0       487.5       488.5       487.8       483.2       476.1       472.2    
        484.3       487.1       486.4       0.000    
  36    0.000       492.4       489.5       487.9       488.1       488.2       488.0       487.5       486.6       485.5    
        484.6       483.9       483.2       482.4       481.6       480.7       479.6       478.1       477.5       481.4    
        483.4       484.0       484.0       483.8       483.3       482.5       481.7       480.7       479.4       477.7    
        475.9       473.8       471.7       469.8       468.6       469.4       468.9       472.5       473.4       473.6    
        473.6       473.6       473.4       473.0       472.5       472.1       472.2       473.3       474.9       477.3    
        479.7       481.7       483.4       485.2       486.8       487.9       487.0       482.4       475.2       471.5    
        484.0       486.7       486.1       0.000    
  37    0.000       492.2       489.2       487.3       487.4       487.6       487.5       487.1       486.3       485.3    
        484.5       483.8       483.1       482.4       481.8       481.0       480.1       478.6       477.9       483.7    
        484.0       484.0       483.7       483.2       482.5       481.6       480.6       479.5       478.0       476.2    
        474.2       472.1       470.1       468.0       466.2       466.1       469.7       470.0       472.6       473.2    
        473.3       473.1       472.8       472.2       471.4       470.8       471.1       472.1       473.8       476.2    
        478.7       480.7       482.5       484.3       485.9       487.0       486.1       481.3       474.1       470.8    
        483.7       486.3       485.8       0.000    
  38    0.000       491.9       488.7       486.6       486.6       486.9       486.9       486.6       486.0       485.1    
        484.3       483.7       483.1       482.5       481.9       481.4       480.7       479.7       479.0       482.6    
        483.8       483.7       483.2       482.5       481.6       480.5       479.4       478.2       476.6       474.8    
        472.8       470.9       469.0       467.1       465.2       463.9       463.5       466.6       470.6       472.6    
        472.9       472.6       472.0       471.0       469.9       469.3       469.9       471.0       472.6       475.0    
        477.5       479.5       481.3       483.1       484.8       485.9       485.0       480.0       472.7       470.0    
        483.2       485.8       485.3       0.000    
  39    0.000       491.6       488.3       485.9       485.7       486.1       486.2       486.1       485.6       484.8    
        484.1       483.6       483.0       482.5       482.1       481.7       481.4       481.2       480.7       482.6    
        483.6       483.4       482.7       481.8       480.7       479.4       478.2       476.9       475.2       473.4    
        471.5       469.7       467.9       466.1       464.4       463.1       462.4       462.4       467.0       471.4    
        472.8       472.6       471.6       469.8       468.4       468.0       468.7       469.9       471.5       473.8    
        476.2       478.2       480.0       481.9       483.6       484.7       483.7       478.6       471.3       469.2    
        482.8       485.3       484.9       0.000    
  40    0.000       491.3       487.7       485.0       484.7       485.1       485.4       485.4       485.1       484.4    
        483.9       483.4       482.9       482.5       482.2       482.1       482.2       482.4       482.4       483.1    
        483.5       483.0       482.1       480.9       479.5       478.0       476.6       475.2       473.5       471.7    
        469.9       468.1       466.4       464.6       462.9       461.6       461.0       461.1       462.8       465.8    
        471.2       473.3       472.1       468.9       467.1       467.0       467.7       468.8       470.3       472.5    
        474.8       476.7       478.5       480.4       482.1       483.2       482.1       477.0       469.7       468.3    
        482.2       484.7       484.3       0.000    
  41    0.000       490.9       487.1       484.1       483.5       484.0       484.5       484.7       484.5       484.0    
        483.6       483.2       482.8       482.6       482.4       482.4       482.7       483.0       483.3       483.5    
        483.3       482.5       481.2       479.6       477.8       476.2       474.7       473.3       471.7       469.9    
        468.2       466.6       464.9       463.3       461.5       459.9       458.9       458.5       458.9       461.6    
        464.6       466.7       473.2       468.6       466.2       466.4       467.0       468.0       469.3       471.3    
        473.4       475.2       477.0       478.9       480.5       481.5       480.5       475.2       468.0       467.5    
        481.6       484.0       483.7       0.000    
  42    0.000       490.4       486.5       483.2       482.3       482.9       483.5       483.9       483.9       483.6    
        483.2       482.9       482.7       482.5       482.5       482.7       482.9       483.2       483.4       483.5    
        483.0       481.7       480.2       478.4       476.5       474.8       473.3       472.0       470.4       468.8    
        467.2       465.6       464.1       462.5       460.7       459.0       457.6       456.6       456.1       456.2    
        457.8       457.2       465.8       465.5       465.7       466.0       466.6       467.4       468.5       470.3    
        472.2       473.9       475.5       477.3       478.9       479.8       478.8       473.5       466.4       466.8    
        481.0       483.4       483.1       0.000    
  43    0.000       490.0       485.9       482.3       481.2       481.8       482.6       483.1       483.3       483.1    
        482.9       482.7       482.5       482.5       482.6       482.8       483.0       483.2       483.4       483.4    
        482.8       481.5       479.8       477.8       475.9       474.2       472.7       471.4       469.8       468.2    
        466.7       465.2       463.8       462.2       460.5       458.8       457.4       456.4       455.7       455.4    
        455.6       458.9       461.5       464.8       465.3       465.7       466.2       466.8       467.8       469.4    
        471.1       472.6       474.1       475.8       477.3       478.2       477.1       471.9       464.9       466.1    
        480.4       482.7       482.6       0.000    
  44    0.000       489.5       485.1       481.4       479.9       480.5       481.5       482.2       482.5       482.5    
        482.4       482.3       482.3       482.4       482.5       482.7       482.9       483.1       483.2       483.1    
        482.5       481.2       479.5       477.6       475.7       474.0       472.6       471.3       469.8       468.3    
        466.8       465.4       464.0       462.5       460.9       459.2       457.9       457.1       456.9       457.0    
        457.1       457.5       458.7       461.6       463.8       464.8       465.5       466.1       467.0       468.4    
        469.9       471.2       472.6       474.1       475.5       476.2       475.2       470.1       463.3       465.4    
        479.6       482.0       481.9       0.000    
  45    0.000       488.9       484.3       480.2       478.3       478.9       480.0       480.9       481.5       481.8    
        481.8       481.8       481.9       482.1       482.3       482.5       482.7       482.8       482.8       482.6    
        482.1       480.8       479.3       477.4       475.7       474.1       472.7       471.5       470.0       468.6    
        467.2       465.8       464.5       463.2       461.9       460.6       459.6       458.8       458.2       458.0    
        458.1       458.5       459.2       460.7       462.0       463.2       464.3       465.1       465.9       467.1    
        468.4       469.6       470.7       472.0       473.2       473.8       472.8       468.0       461.5       464.6    
        478.6       481.1       481.2       0.000    
  46    0.000       488.1       483.1       478.8       476.5       476.9       478.2       479.3       480.2       480.7    
        480.9       481.1       481.3       481.6       481.8       482.0       482.1       482.2       482.1       481.9    
        481.3       480.2       478.8       477.2       475.6       474.1       472.8       471.7       470.4       469.1    
        468.0       466.9       465.8       464.7       463.5       462.2       461.1       460.1       459.4       459.1    
        459.0       459.2       459.5       460.2       460.9       461.7       462.6       463.5       464.5       465.5    
        466.6       467.5       468.5       469.5       470.4       470.8       469.9       465.5       459.4       463.6    
        477.3       480.1       480.2       0.000    
  47    0.000       487.1       481.8       477.2       474.5       474.6       476.0       477.4       478.5       479.2    
        479.7       480.0       480.4       480.7       481.0       481.2       481.3       481.3       481.2       480.9    
        480.4       479.4       478.1       476.6       475.2       474.0       472.9       472.0       471.0       469.9    
        468.9       467.9       467.0       465.9       464.7       463.4       462.2       461.1       460.3       459.8    
        459.5       459.4       459.4       459.6       459.9       460.3       460.9       461.6       462.4       463.5    
        464.5       465.2       465.9       466.7       467.3       467.4       466.6       462.9       457.4       462.6    
        475.9       478.8       479.2       0.000    
  48    0.000       486.0       480.5       475.6       472.6       472.3       473.7       475.3       476.7       477.6    
        478.3       478.8       479.2       479.7       480.0       480.2       480.3       480.3       480.1       479.8    
        479.2       478.3       477.1       475.8       474.6       473.6       472.7       472.0       471.1       470.1    
        469.2       468.3       467.4       466.4       465.2       463.9       462.7       461.5       460.6       459.9    
        459.5       459.2       459.0       458.9       458.9       459.0       459.4       459.8       460.4       461.3    
        462.1       462.8       463.3       463.8       464.1       464.0       463.3       460.4       455.5       461.7    
        474.4       477.6       478.1       0.000    
  49    0.000       484.7       478.9       473.8       470.6       469.8       471.2       473.0       474.5       475.7    
        476.6       477.2       477.7       478.2       478.6       478.9       478.9       478.8       478.6       478.2    
        477.7       476.8       475.7       474.6       473.5       472.6       471.9       471.2       470.4       469.6    
        468.7       467.9       467.0       466.1       465.0       463.7       462.5       461.3       460.3       459.6    
        459.0       458.7       458.3       457.9       457.7       457.6       457.7       457.9       458.3       458.8    
        459.5       460.1       460.4       460.7       460.9       460.6       459.8       457.8       453.8       460.6    
        472.8       476.3       476.9       0.000    
  50    0.000       483.0       476.8       471.6       468.1       466.9       468.0       469.9       471.6       473.0    
        474.1       474.9       475.5       476.1       476.5       476.8       476.8       476.6       476.3       475.9    
        475.3       474.4       473.4       472.4       471.4       470.6       469.9       469.3       468.5       467.8    
        467.1       466.3       465.6       464.7       463.7       462.5       461.3       460.2       459.2       458.5    
        457.9       457.5       457.0       456.5       456.0       455.8       455.7       455.7       455.9       456.1    
        456.5       456.9       457.1       457.2       457.1       456.7       456.0       454.9       452.0       459.3    
        470.7       474.5       475.4       0.000    
  51    0.000       481.1       474.8       469.5       465.9       464.3       465.1       466.9       468.8       470.3    
        471.5       472.4       473.1       473.7       474.2       474.3       474.2       473.9       473.6       473.2    
        472.6       471.7       470.7       469.6       468.7       467.9       467.3       466.7       466.0       465.4    
        464.7       464.0       463.4       462.6       461.7       460.6       459.6       458.6       457.7       457.1    
        456.5       456.1       455.6       455.0       454.5       454.1       454.0       453.9       454.0       454.1    
        454.2       454.4       454.6       454.5       454.3       453.9       453.2       452.5       450.9       458.2    
        468.7       472.9       473.9       0.000    
  52    0.000       479.5       473.0       467.7       464.2       462.4       462.9       464.6       466.4       468.0    
        469.3       470.1       470.9       471.5       471.8       471.9       471.7       471.5       471.1       470.6    
        470.0       469.0       468.0       467.0       466.1       465.4       464.8       464.2       463.6       463.0    
        462.4       461.8       461.2       460.5       459.7       458.8       457.9       457.1       456.3       455.7    
        455.3       454.9       454.5       453.9       453.3       453.0       452.8       452.7       452.7       452.7    
        452.8       452.9       453.0       452.9       452.6       452.2       451.6       451.0       450.3       457.3    
        467.1       471.5       472.7       0.000    
  53    0.000       478.2       471.6       466.3       462.8       461.0       461.2       462.7       464.5       466.1    
        467.4       468.2       469.0       469.5       469.8       469.8       469.6       469.3       468.9       468.3    
        467.6       466.6       465.6       464.7       463.8       463.1       462.6       462.1       461.5       461.0    
        460.4       459.9       459.4       458.8       458.1       457.3       456.5       455.8       455.2       454.7    
        454.3       454.0       453.6       453.1       452.5       452.2       452.0       451.9       451.9       451.9    
        451.9       451.9       452.0       451.9       451.6       451.2       450.8       450.4       450.1       456.5    
        465.9       470.4       471.8       0.000    
  54    0.000       476.9       470.3       465.1       461.7       459.8       459.7       461.2       462.9       464.4    
        465.6       466.5       467.1       467.6       467.8       467.8       467.5       467.2       466.7       466.2    
        465.4       464.4       463.4       462.5       461.7       461.1       460.6       460.2       459.7       459.2    
        458.7       458.2       457.8       457.2       456.6       456.0       455.3       454.7       454.2       453.8    
        453.5       453.2       452.9       452.5       452.0       451.6       451.4       451.3       451.3       451.3    
        451.3       451.3       451.3       451.2       451.0       450.7       450.4       450.1       450.0       455.9    
        464.8       469.5       471.0       0.000    
  55    0.000       475.6       469.0       463.9       460.5       458.6       458.4       459.6       461.2       462.7    
        463.9       464.6       465.2       465.6       465.8       465.7       465.4       465.0       464.5       463.9    
        463.1       462.1       461.2       460.4       459.7       459.1       458.7       458.3       457.9       457.4    
        457.0       456.6       456.2       455.8       455.3       454.8       454.2       453.8       453.3       453.0    
        452.7       452.5       452.3       451.9       451.5       451.2       450.9       450.8       450.8       450.8    
        450.8       450.8       450.8       450.7       450.6       450.4       450.2       450.0       450.0       455.3    
        463.7       468.6       470.3       0.000    
  56    0.000       474.0       467.5       462.5       459.3       457.4       456.9       458.0       459.4       460.7    
        461.8       462.5       463.0       463.3       463.4       463.2       462.9       462.4       461.9       461.2    
        460.4       459.5       458.7       458.0       457.4       457.0       456.6       456.3       456.0       455.6    
        455.3       455.0       454.7       454.3       453.9       453.5       453.1       452.7       452.4       452.2    
        452.0       451.8       451.6       451.4       451.1       450.8       450.6       450.5       450.4       450.4    
        450.4       450.4       450.4       450.3       450.2       450.1       450.0       450.0       450.0       454.7    
        462.5       467.7       469.4       0.000    
  57    0.000       472.1       465.7       460.9       457.9       456.1       455.4       456.2       457.4       458.5    
        459.4       460.0       460.4       460.6       460.6       460.3       459.9       459.4       458.8       458.1    
        457.4       456.6       456.0       455.5       455.1       454.7       454.5       454.2       454.0       453.7    
        453.5       453.3       453.0       452.8       452.5       452.2       452.0       451.7       451.5       451.3    
        451.2       451.1       451.0       450.8       450.6       450.4       450.3       450.2       450.2       450.1    
        450.1       450.1       450.1       450.1       450.1       450.0       450.0       450.0       450.0       453.9    
        461.2       466.7       468.5       0.000    
  58    0.000       469.8       463.6       459.2       456.3       454.7       453.9       454.3       455.2       456.1    
        456.8       457.2       457.6       457.7       457.5       457.1       456.6       456.0       455.4       454.8    
        454.3       453.8       453.4       453.1       452.8       452.6       452.4       452.3       452.1       451.9    
        451.8       451.7       451.5       451.4       451.2       451.0       450.9       450.7       450.6       450.5    
        450.4       450.3       450.2       450.1       450.0       449.9       449.8       449.8       449.8       449.9    
        450.0       450.0       450.0       450.0       450.0       450.0       450.0       450.0       450.0       453.1    
        459.9       465.5       467.5       0.000    
  59    0.000       467.2       461.3       457.3       454.8       453.3       452.5       452.6       453.2       453.8    
        454.2       454.5       454.7       454.6       454.3       453.8       453.2       452.7       452.3       452.0    
        451.7       451.5       451.3       451.1       450.9       450.8       450.7       450.7       450.6       450.5    
        450.4       450.3       450.2       450.1       450.0       449.9       449.8       449.6       449.5       449.4    
        449.3       449.3       449.2       449.1       448.9       448.7       448.5       448.4       448.1       448.2    
        448.9       449.6       449.8       449.9       450.0       450.0       450.0       450.0       450.0       452.3    
        458.7       464.4       466.4       0.000    
  60    0.000       464.7       459.1       455.3       453.2       452.0       451.3       451.2       451.5       451.8    
        452.0       452.0       452.0       451.8       451.4       451.0       450.7       450.5       450.3       450.2    
        450.2       450.1       450.0       449.9       449.8       449.7       449.6       449.5       449.4       449.3    
        449.1       449.0       448.9       448.7       448.5       448.2       448.0       447.7       447.4       447.1    
        446.8       446.6       446.3       445.8       445.1       444.2       443.0       441.6       441.6       443.8    
        446.6       448.3       449.2       449.6       449.9       450.0       450.0       450.0       450.0       451.7    
        457.7       463.2       465.2       0.000    
  61    0.000       462.4       457.4       454.0       452.0       450.9       450.4       450.3       450.4       450.4    
        450.4       450.3       450.1       449.9       449.7       449.5       449.3       449.0       448.7       448.5    
        448.4       448.1       447.2       445.9       445.0       444.3       443.8       443.4       443.0       442.6    
        442.2       441.8       441.4       440.9       440.4       439.8       439.1       438.5       437.8       437.2    
        436.7       436.2       435.7       434.9       433.8       432.7       431.8       431.6       433.7       440.2    
        445.1       447.5       448.8       449.5       449.9       450.0       450.1       450.1       450.3       451.5    
        456.8       462.0       464.0       0.000    
  62    0.000       460.3       456.0       453.1       451.4       450.5       450.1       450.0       449.9       449.8    
        449.5       449.1       448.4       447.3       446.0       444.8       443.8       443.1       442.6       442.3    
        442.0       441.8       441.4       440.9       440.2       439.7       439.2       438.7       438.3       438.0    
        437.7       437.5       437.4       437.3       437.2       437.1       437.0       437.0       436.9       436.9    
        436.9       436.8       436.8       436.9       437.0       437.3       437.8       438.5       439.2       444.0    
        448.1       449.3       449.8       450.0       450.2       450.6       451.2       452.0       451.8       451.8    
        456.2       460.9       462.9       0.000    
  63    0.000       458.3       454.9       452.6       451.2       450.5       450.2       450.1       450.0       450.0    
        449.8       449.4       448.7       447.7       446.6       445.8       445.2       445.0       445.0       445.1    
        445.7       446.5       447.0       447.1       447.0       446.9       446.8       446.8       446.7       446.7    
        446.7       446.7       446.8       446.9       447.0       447.3       447.5       447.9       448.2       448.4    
        448.7       448.9       449.1       449.5       449.8       450.1       450.3       450.4       450.4       450.4    
        450.4       450.7       451.2       451.9       453.0       454.6       456.6       458.2       454.6       452.9    
        456.0       460.1       461.9       0.000    
  64    0.000       457.4       455.0       453.3       452.2       451.6       451.2       450.9       450.8       450.7    
        450.6       450.6       450.5       450.6       451.1       451.6       452.1       452.6       453.0       453.3    
        453.6       453.7       453.8       453.7       454.0       454.3       454.7       455.0       455.4       455.6    
        455.8       455.9       456.0       456.0       456.0       456.0       456.0       456.0       456.0       456.0    
        456.0       456.0       456.0       456.0       456.0       456.0       456.1       456.2       456.4       456.8    
        457.5       458.3       459.3       460.8       462.7       465.0       467.3       465.6       459.6       455.2    
        456.6       459.6       461.1       0.000    
  65    0.000       459.5       458.0       456.7       455.8       455.2       454.8       454.5       454.3       454.3    
        454.2       454.2       454.2       454.3       454.4       454.6       454.9       455.2       455.5       455.7    
        456.1       456.4       456.7       457.0       457.3       457.5       457.7       457.8       458.0       458.2    
        458.4       458.6       458.8       459.1       459.3       459.7       460.0       460.3       460.6       460.9    
        461.1       461.3       461.6       462.0       462.5       463.1       463.7       464.3       465.0       466.5    
        469.0       470.5       471.7       472.9       473.8       474.8       475.3       472.6       466.8       459.5    
        458.2       459.7       460.7       0.000    
  66    0.000       0.000       0.000       0.000       0.000       0.000       0.000       0.000       0.000       0.000    
        0.000       0.000       0.000       0.000       0.000       0.000       0.000       0.000       0.000       0.000    
        0.000       0.000       0.000       0.000       0.000       0.000       0.000       0.000       0.000       0.000    
        0.000       0.000       0.000       0.000       0.000       0.000       0.000       0.000       0.000       0.000    
        0.000       0.000       0.000       0.000       0.000       0.000       0.000       0.000       0.000       0.000    
        0.000       0.000       0.000       0.000       0.000       0.000       0.000       0.000       0.000       0.000    
        0.000       0.000       0.000       0.000    



             MODEL LAYER BOTTOM EL. FOR LAYER   2
 READING ON UNIT   14 WITH FORMAT: (10F13.0)           

            1           2           3           4           5           6           7           8           9          10
           11          12          13          14          15          16          17          18          19          20
           21          22          23          24          25          26          27          28          29          30
           31          32          33          34          35          36          37          38          39          40
           41          42          43          44          45          46          47          48          49          50
           51          52          53          54          55          56          57          58          59          60
           61          62          63          64
 ........................................................................................................................
   1    0.000       0.000       0.000       0.000       0.000       0.000       0.000       0.000       0.000       0.000    
        0.000       0.000       0.000       0.000       0.000       0.000       0.000       0.000       0.000       0.000    
        0.000       0.000       0.000       0.000       0.000       0.000       0.000       0.000       0.000       0.000    
        0.000       0.000       0.000       0.000       0.000       0.000       0.000       0.000       0.000       0.000    
        0.000       0.000       0.000       0.000       0.000       0.000       0.000       0.000       0.000       0.000    
        0.000       0.000       0.000       0.000       0.000       0.000       0.000       0.000       0.000       0.000    
        0.000       0.000       0.000       0.000    
   2    0.000       474.4       474.0       473.9       473.8       473.9       473.9       473.9       474.0       474.3    
        474.5       474.6       474.8       475.0       475.1       475.2       475.3       475.4       475.5       475.5    
        475.6       475.7       475.7       475.8       475.8       475.8       475.9       475.9       475.9       476.0    
        476.0       476.0       476.1       476.1       476.1       476.2       476.2       476.3       476.3       476.4    
        476.4       476.4       476.5       476.5       476.6       476.7       476.8       476.9       477.1       477.2    
        477.4       477.5       477.7       477.9       478.0       478.3       478.5       478.8       479.1       479.3    
        479.5       479.5       479.5       0.000    
   3    0.000       475.9       475.7       475.6       475.5       475.5       475.9       476.3       476.6       476.9    
        477.1       477.3       477.5       477.7       477.9       478.1       478.2       478.3       478.3       478.4    
        478.5       478.6       478.6       478.7       478.7       478.7       478.8       478.8       478.8       478.9    
        478.9       478.9       479.0       479.0       479.0       479.1       479.1       479.2       479.2       479.3    
        479.3       479.3       479.4       479.4       479.5       479.6       479.7       479.8       479.9       480.1    
        480.3       480.4       480.5       480.7       480.9       481.1       481.4       481.6       481.9       482.1    
        482.1       481.9       481.6       0.000    
   4    0.000       477.0       477.0       477.0       477.0       477.5       477.9       478.3       478.6       478.9    
        479.1       479.3       479.5       479.7       479.8       480.0       480.1       480.3       480.3       480.4    
        480.5       480.5       480.6       480.6       480.7       480.7       480.8       480.8       480.8       480.8    
        480.9       480.9       480.9       481.0       481.0       481.1       481.1       481.2       481.2       481.2    
        481.3       481.3       481.3       481.4       481.5       481.6       481.7       481.8       481.9       482.1    
        482.3       482.4       482.5       482.7       482.9       483.1       483.4       483.6       483.9       484.0    
        484.0       483.6       483.4       0.000    
   5    0.000       478.6       478.3       478.3       478.6       479.0       479.4       479.7       480.0       480.2    
        480.4       480.5       480.7       480.9       481.0       481.2       481.3       481.4       481.5       481.6    
        481.6       481.7       481.8       481.8       481.9       481.9       481.9       481.9       482.0       482.0    
        482.0       482.1       482.1       482.1       482.2       482.2       482.2       482.3       482.3       482.4    
        482.4       482.4       482.5       482.5       482.6       482.7       482.8       482.9       483.0       483.2    
        483.4       483.5       483.7       483.8       484.0       484.2       484.5       484.7       485.0       485.1    
        485.0       484.7       484.7       0.000    
   6    0.000       479.9       479.6       479.5       479.7       480.1       480.4       480.7       480.8       481.0    
        481.1       481.2       481.4       481.5       481.7       481.8       481.9       482.0       482.1       482.2    
        482.2       482.3       482.4       482.4       482.5       482.5       482.5       482.5       482.6       482.6    
        482.6       482.7       482.7       482.7       482.8       482.8       482.8       482.9       482.9       483.0    
        483.0       483.0       483.0       483.1       483.2       483.3       483.4       483.5       483.6       483.8    
        483.9       484.1       484.2       484.4       484.6       484.8       485.0       485.3       485.5       485.6    
        485.5       485.4       485.4       0.000    
   7    0.000       480.9       480.5       480.4       480.5       480.8       481.0       481.2       481.3       481.4    
        481.5       481.6       481.7       481.8       481.9       482.0       482.1       482.2       482.2       482.3    
        482.4       482.4       482.5       482.5       482.6       482.6       482.7       482.7       482.7       482.7    
        482.8       482.8       482.8       482.9       482.9       483.0       483.0       483.1       483.1       483.2    
        483.2       483.2       483.3       483.3       483.4       483.5       483.6       483.7       483.8       484.0    
        484.2       484.3       484.4       484.6       484.8       485.0       485.2       485.4       485.6       485.7    
        485.6       485.7       485.6       0.000    
   8    0.000       481.6       481.1       481.0       481.1       481.2       481.4       481.5       481.6       481.7    
        481.7       481.8       481.8       481.9       482.0       482.0       482.1       482.1       482.2       482.2    
        482.3       482.3       482.4       482.4       482.5       482.5       482.5       482.6       482.6       482.6    
        482.6       482.7       482.7       482.7       482.8       482.8       482.9       482.9       483.0       483.0    
        483.0       483.1       483.1       483.2       483.3       483.4       483.5       483.6       483.8       484.0    
        484.1       484.3       484.4       484.6       484.8       485.0       485.2       485.4       485.5       485.5    
        485.5       485.7       485.5       0.000    
   9    0.000       482.1       481.6       481.4       481.5       481.5       481.6       481.6       481.7       481.7    
        481.7       481.7       481.8       481.8       481.8       481.9       481.9       482.0       482.0       482.0    
        482.1       482.1       482.2       482.2       482.2       482.3       482.3       482.3       482.3       482.4    
        482.4       482.4       482.4       482.5       482.5       482.6       482.6       482.6       482.7       482.7    
        482.8       482.8       482.8       482.9       483.0       483.1       483.2       483.4       483.5       483.7    
        483.9       484.1       484.2       484.4       484.6       484.9       485.1       485.2       485.3       485.3    
        485.3       485.5       485.1       0.000    
  10    0.000       482.5       481.9       481.7       481.7       481.7       481.6       481.6       481.6       481.6    
        481.6       481.6       481.6       481.6       481.6       481.7       481.7       481.7       481.7       481.8    
        481.8       481.8       481.9       481.9       481.9       482.0       482.0       482.0       482.0       482.0    
        482.1       482.1       482.1       482.1       482.2       482.2       482.3       482.3       482.4       482.4    
        482.4       482.5       482.5       482.6       482.6       482.7       482.9       483.0       483.2       483.4    
        483.6       483.8       484.0       484.2       484.4       484.6       484.9       485.1       485.0       484.8    
        484.8       485.1       484.5       0.000    
  11    0.000       482.7       482.1       481.9       481.7       481.6       481.5       481.5       481.4       481.4    
        481.4       481.4       481.4       481.4       481.4       481.4       481.4       481.5       481.5       481.5    
        481.5       481.5       481.6       481.6       481.6       481.6       481.7       481.7       481.7       481.7    
        481.7       481.8       481.8       481.8       481.8       481.9       481.9       482.0       482.0       482.0    
        482.1       482.1       482.1       482.2       482.3       482.4       482.5       482.7       482.8       483.1    
        483.3       483.5       483.7       483.9       484.2       484.5       484.8       484.9       484.6       484.0    
        483.9       484.7       483.9       0.000    
  12    0.000       482.9       482.3       482.1       481.9       481.6       481.3       481.1       481.1       481.1    
        481.1       481.1       481.1       481.1       481.1       481.1       481.2       481.2       481.2       481.2    
        481.2       481.3       481.3       481.3       481.3       481.3       481.4       481.4       481.4       481.4    
        481.4       481.5       481.5       481.5       481.5       481.6       481.6       481.6       481.7       481.7    
        481.7       481.8       481.8       481.8       481.9       482.0       482.2       482.3       482.5       482.7    
        483.0       483.2       483.4       483.7       484.1       484.5       484.7       484.7       484.0       483.0    
        482.8       484.2       483.4       0.000    
  13    0.000       483.0       482.4       482.1       482.0       481.6       481.1       480.8       480.6       480.6    
        480.6       480.6       480.7       480.7       480.8       480.9       480.9       481.0       481.0       481.0    
        481.0       481.0       481.1       481.1       481.1       481.1       481.1       481.1       481.2       481.2    
        481.2       481.2       481.2       481.2       481.3       481.3       481.3       481.3       481.4       481.4    
        481.4       481.4       481.5       481.5       481.6       481.7       481.8       482.0       482.2       482.4    
        482.7       483.0       483.3       483.7       484.1       484.4       484.6       484.4       483.4       482.0    
        481.8       483.7       482.9       0.000    
  14    0.000       483.0       482.4       482.2       482.0       481.5       481.0       480.5       480.1       480.0    
        480.0       480.0       480.1       480.3       480.4       480.6       480.7       480.7       480.8       480.9    
        480.9       480.9       480.9       480.9       480.9       480.9       481.0       481.0       481.0       481.0    
        481.0       481.0       481.0       481.0       481.1       481.1       481.1       481.1       481.1       481.1    
        481.2       481.2       481.2       481.3       481.3       481.4       481.5       481.7       481.9       482.2    
        482.5       482.9       483.2       483.6       484.0       484.3       484.5       484.1       482.7       481.0    
        480.8       483.2       482.4       0.000    
  15    0.000       483.0       482.3       482.1       481.9       481.5       480.9       480.2       479.8       479.5    
        479.4       479.4       479.4       479.6       479.9       480.2       480.4       480.5       480.6       480.7    
        480.8       480.8       480.8       480.8       480.8       480.9       480.9       480.9       480.9       480.9    
        480.9       480.9       480.9       480.9       480.9       480.9       480.9       480.9       480.9       480.9    
        480.9       480.9       481.0       481.0       481.0       481.1       481.2       481.4       481.6       481.9    
        482.3       482.7       483.1       483.5       484.0       484.3       484.4       483.8       482.0       480.0    
        480.1       482.9       482.0       0.000    
  16    0.000       483.0       482.2       482.0       481.9       481.5       480.8       480.0       479.4       479.0    
        478.8       478.7       478.7       478.8       479.1       479.5       479.8       480.1       480.3       480.4    
        480.6       480.7       480.8       480.8       480.8       480.8       480.8       480.8       480.8       480.8    
        480.8       480.8       480.7       480.7       480.7       480.6       480.6       480.6       480.6       480.6    
        480.6       480.6       480.6       480.6       480.7       480.7       480.9       481.0       481.3       481.7    
        482.1       482.5       482.9       483.4       483.8       484.2       484.2       483.4       481.2       479.1    
        479.5       482.5       481.7       0.000    
  17    0.000       483.0       482.0       481.9       481.7       481.4       480.7       479.9       479.1       478.5    
        478.1       477.9       477.8       477.8       477.9       478.4       478.8       479.2       479.5       479.8    
        480.0       480.3       480.5       481.0       481.1       480.9       480.8       480.7       480.6       480.6    
        480.4       480.3       480.2       480.1       480.0       479.9       479.8       479.8       479.8       479.8    
        479.8       479.8       479.9       479.9       480.0       480.1       480.3       480.5       480.8       481.2    
        481.7       482.2       482.6       483.1       483.6       484.0       484.1       482.9       480.3       477.8    
        478.9       482.0       481.2       0.000    
  18    0.000       483.0       481.8       481.7       481.5       481.2       480.6       479.7       478.8       478.1    
        477.6       477.2       476.9       476.7       476.7       477.1       477.6       478.0       478.4       478.7    
        479.1       479.6       480.1       480.8       481.3       481.3       481.0       480.7       480.4       480.0    
        479.8       479.5       479.2       479.0       478.7       478.6       478.6       478.6       478.7       478.7    
        478.8       478.8       478.9       479.0       479.1       479.3       479.5       479.8       480.1       480.7    
        481.2       481.7       482.2       482.8       483.3       483.8       483.8       482.2       479.2       476.5    
        478.4       481.5       480.7       0.000    
  19    0.000       482.9       481.6       481.5       481.4       481.1       480.5       479.5       478.6       477.9    
        477.3       476.8       476.4       476.1       476.0       476.1       476.6       477.1       477.5       477.9    
        478.4       478.9       479.6       480.4       480.9       481.4       481.2       480.8       480.2       479.6    
        479.1       478.7       478.3       477.9       477.6       477.5       477.5       477.6       477.7       477.8    
        477.9       478.0       478.0       478.2       478.4       478.6       478.9       479.2       479.6       480.2    
        480.8       481.3       481.9       482.5       483.1       483.6       483.6       481.8       478.4       475.6    
        478.1       481.2       480.4       0.000    
  20    0.000       482.9       481.4       481.3       481.2       480.9       480.4       479.4       478.5       477.6    
        477.0       476.5       476.0       475.6       475.3       475.2       475.7       476.1       476.6       477.0    
        477.6       478.2       479.0       479.8       480.3       480.6       480.9       480.7       480.3       479.3    
        478.5       477.8       477.2       476.6       476.2       476.2       476.3       476.4       476.6       476.7    
        476.9       477.0       477.1       477.3       477.6       477.9       478.2       478.6       479.0       479.6    
        480.3       480.9       481.5       482.2       482.8       483.4       483.3       481.3       477.6       474.7    
        477.8       480.8       480.1       0.000    
  21    0.000       482.8       481.3       481.1       481.0       480.8       480.3       479.3       478.3       477.5    
        476.8       476.2       475.7       475.1       474.7       474.6       474.9       475.3       475.8       476.2    
        476.8       477.4       478.3       479.2       479.6       479.7       479.8       480.0       479.8       479.3    
        478.2       477.2       476.3       475.6       475.1       475.0       475.2       475.4       475.6       475.8    
        475.9       476.1       476.2       476.5       476.8       477.2       477.6       478.0       478.5       479.1    
        479.8       480.5       481.2       481.9       482.6       483.1       483.0       480.8       476.9       473.9    
        477.6       480.5       479.8       0.000    
  22    0.000       482.8       481.1       481.0       480.9       480.6       480.1       479.2       478.2       477.4    
        476.6       476.0       475.4       474.8       474.3       474.0       474.2       474.7       475.1       475.6    
        476.1       476.8       477.6       478.6       479.0       479.0       478.4       478.6       479.3       478.5    
        477.9       476.8       475.8       474.9       474.2       474.1       474.3       474.5       474.8       475.0    
        475.2       475.3       475.5       475.8       476.2       476.6       477.0       477.4       477.9       478.6    
        479.4       480.1       480.8       481.6       482.3       482.9       482.7       480.4       476.3       473.2    
        477.4       480.3       479.6       0.000    
  23    0.000       482.7       481.0       480.8       480.7       480.5       480.0       479.1       478.1       477.3    
        476.5       475.9       475.3       474.6       474.0       473.6       473.6       474.1       474.5       475.0    
        475.5       476.1       477.0       478.0       478.5       478.4       477.7       477.0       478.1       478.6    
        477.0       476.3       475.3       474.3       473.5       473.4       473.5       473.8       474.0       474.3    
        474.5       474.6       474.8       475.2       475.6       476.0       476.5       476.9       477.4       478.2    
        479.0       479.8       480.5       481.3       482.1       482.6       482.4       480.0       475.8       472.6    
        477.2       480.0       479.4       0.000    
  24    0.000       482.7       480.9       480.6       480.5       480.4       479.9       479.0       478.1       477.2    
        476.4       475.8       475.1       474.4       473.7       473.3       473.1       473.5       473.9       474.4    
        474.9       475.5       476.4       477.5       477.9       477.7       477.0       476.4       476.0       479.1    
        477.2       475.2       474.6       473.8       472.9       472.8       472.9       473.1       473.3       473.6    
        473.8       474.0       474.2       474.5       474.9       475.4       475.9       476.4       476.9       477.7    
        478.6       479.4       480.2       481.1       481.8       482.3       482.0       479.6       475.2       472.0    
        477.0       479.8       479.1       0.000    
  25    0.000       482.6       480.8       480.4       480.4       480.2       479.8       478.9       478.0       477.1    
        476.3       475.6       475.0       474.2       473.5       472.9       472.7       473.0       473.4       473.8    
        474.3       474.8       475.8       476.9       477.4       477.1       476.3       475.8       475.6       476.7    
        479.2       475.0       473.4       472.9       472.3       472.2       472.3       472.5       472.7       472.9    
        473.1       473.3       473.5       473.9       474.3       474.8       475.3       475.8       476.3       477.2    
        478.2       479.1       479.9       480.8       481.6       482.0       481.7       479.2       474.6       471.4    
        476.9       479.6       478.9       0.000    
  26    0.000       482.5       480.6       480.2       480.2       480.0       479.6       478.8       477.9       477.0    
        476.2       475.5       474.8       474.1       473.3       472.6       472.3       472.5       472.8       473.2    
        473.7       474.2       475.3       476.4       476.8       476.4       475.6       475.0       474.1       473.3    
        476.4       477.6       472.9       471.9       471.5       471.6       471.8       471.9       472.1       472.4    
        472.5       472.7       472.9       473.3       473.7       474.2       474.7       475.1       475.7       476.6    
        477.7       478.7       479.5       480.5       481.3       481.7       481.4       478.7       474.0       470.8    
        476.7       479.3       478.7       0.000    
[...]
       0.3842      0.3402      0.2777      0.2274      0.1797      0.1449      0.1356      0.1264      0.1141      9.7351E-02
       7.3147E-02  4.4993E-02  1.8750E-02 -8.0140E-03 -3.1990E-02 -5.2915E-02 -7.0668E-02 -8.6706E-02 -0.1060     -0.1256    
      -0.1445     -0.1630     -0.1814     -0.2025     -0.2276     -0.2546     -0.2804     -0.3046     -0.3315     -0.3573    
      -0.3773     -0.3930     -0.4077     -0.4161     -0.4053     -0.3820     -0.3580     -0.3065     -0.2545     -0.1968    
      -0.1667     -0.1845     -0.1990     -0.2133     -0.2306     -0.2519     -0.2770     -0.3045     -0.3263     -0.3358    
      -0.3320     -0.2824       0.000      -999.0    
  46   -999.0      0.5944      0.8381      0.7338      0.6192      0.5350      0.4747      0.4265      0.3825      0.3380    
       0.2914      0.2412      0.1732      0.1220      7.4076E-02  3.9874E-02  3.0715E-02  2.1268E-02  9.0755E-03 -6.9276E-03
      -2.9130E-02 -5.4426E-02 -7.7455E-02 -0.1004     -0.1205     -0.1373     -0.1512     -0.1634     -0.1776     -0.1915    
      -0.2049     -0.2180     -0.2307     -0.2446     -0.2607     -0.2781     -0.2945     -0.3097     -0.3234     -0.3345    
      -0.3428     -0.3493     -0.3555     -0.3610     -0.3630     -0.3627     -0.3506     -0.3101     -0.2751     -0.2369    
      -0.2176     -0.2290     -0.2378     -0.2470     -0.2590     -0.2750     -0.2946     -0.3165     -0.3339     -0.3415    
      -0.3376     -0.2886       0.000      -999.0    
  47   -999.0      0.4409      0.6926      0.6276      0.5332      0.4561      0.3963      0.3458      0.2987      0.2513    
       0.2020      0.1501      8.1436E-02  3.1833E-02 -1.3486E-02 -4.5631E-02 -5.4386E-02 -6.3073E-02 -7.4011E-02 -8.7828E-02
      -0.1066     -0.1273     -0.1458     -0.1640     -0.1793     -0.1920     -0.2023     -0.2113     -0.2215     -0.2315    
      -0.2410     -0.2502     -0.2592     -0.2688     -0.2798     -0.2916     -0.3029     -0.3134     -0.3227     -0.3301    
      -0.3359     -0.3404     -0.3450     -0.3500     -0.3528     -0.3503     -0.3256     -0.3018     -0.2858     -0.2699    
      -0.2667     -0.2709     -0.2749     -0.2796     -0.2871     -0.2982     -0.3126     -0.3288     -0.3420     -0.3479    
      -0.3440     -0.2960       0.000      -999.0    
  48   -999.0      0.3336      0.5699      0.5322      0.4533      0.3816      0.3220      0.2698      0.2211      0.1731    
       0.1244      7.3786E-02  7.6095E-03 -3.8775E-02 -8.0353E-02 -0.1098     -0.1169     -0.1239     -0.1327     -0.1440    
      -0.1589     -0.1754     -0.1895     -0.2034     -0.2149     -0.2244     -0.2320     -0.2385     -0.2462     -0.2535    
      -0.2604     -0.2671     -0.2736     -0.2805     -0.2885     -0.2969     -0.3048     -0.3122     -0.3187     -0.3240    
      -0.3280     -0.3314     -0.3350     -0.3388     -0.3418     -0.3419     -0.3363     -0.3288     -0.3206     -0.3100    
      -0.3054     -0.3057     -0.3068     -0.3088     -0.3130     -0.3198     -0.3293     -0.3405     -0.3501     -0.3544    
      -0.3506     -0.3038       0.000      -999.0    
  49   -999.0      0.2488      0.4565      0.4384      0.3727      0.3057      0.2461      0.1927      0.1436      9.7122E-02
       5.1569E-02  4.7235E-03 -5.7283E-02 -9.8988E-02 -0.1364     -0.1626     -0.1672     -0.1719     -0.1783     -0.1866    
      -0.1981     -0.2104     -0.2207     -0.2309     -0.2392     -0.2460     -0.2515     -0.2562     -0.2619     -0.2672    
      -0.2722     -0.2771     -0.2819     -0.2870     -0.2929     -0.2991     -0.3049     -0.3104     -0.3153     -0.3193    
      -0.3225     -0.3252     -0.3280     -0.3317     -0.3353     -0.3383     -0.3393     -0.3395     -0.3387     -0.3354    
      -0.3356     -0.3369     -0.3373     -0.3376     -0.3385     -0.3413     -0.3460     -0.3525     -0.3588     -0.3616    
      -0.3581     -0.3125       0.000      -999.0    
  50   -999.0      0.1711      0.3383      0.3340      0.2813      0.2203      0.1625      0.1102      6.4328E-02  2.4145E-02
      -1.3620E-02 -5.3284E-02 -0.1095     -0.1459     -0.1801     -0.2038     -0.2052     -0.2068     -0.2105     -0.2161    
      -0.2242     -0.2327     -0.2398     -0.2469     -0.2527     -0.2574     -0.2612     -0.2645     -0.2685     -0.2723    
      -0.2761     -0.2797     -0.2831     -0.2870     -0.2915     -0.2963     -0.3008     -0.3052     -0.3091     -0.3125    
      -0.3151     -0.3176     -0.3202     -0.3238     -0.3282     -0.3329     -0.3373     -0.3419     -0.3465     -0.3504    
      -0.3582     -0.3651     -0.3669     -0.3658     -0.3635     -0.3620     -0.3624     -0.3649     -0.3686     -0.3702    
      -0.3674     -0.3234       0.000      -999.0    
  51   -999.0      0.1196      0.2495      0.2491      0.2035      0.1455      8.7050E-02  3.3069E-02 -1.1098E-02 -4.3165E-02
      -6.8969E-02 -9.8827E-02 -0.1505     -0.1843     -0.2186     -0.2422     -0.2399     -0.2385     -0.2397     -0.2430    
      -0.2487     -0.2548     -0.2596     -0.2647     -0.2688     -0.2721     -0.2748     -0.2772     -0.2805     -0.2833    
      -0.2861     -0.2889     -0.2916     -0.2948     -0.2984     -0.3023     -0.3061     -0.3098     -0.3132     -0.3160    
      -0.3184     -0.3206     -0.3231     -0.3267     -0.3312     -0.3366     -0.3424     -0.3490     -0.3566     -0.3638    
      -0.3780     -0.3997     -0.4033     -0.3967     -0.3876     -0.3805     -0.3770     -0.3766     -0.3785     -0.3792    
      -0.3770     -0.3339       0.000      -999.0    
  52   -999.0      8.7576E-02  0.1896      0.1885      0.1459      8.9261E-02  2.8925E-02 -2.8851E-02 -7.4123E-02 -9.6545E-02
      -0.1019     -0.1148     -0.1678     -0.2079     -0.2479     -0.2740     -0.2681     -0.2639     -0.2630     -0.2646    
      -0.2686     -0.2728     -0.2760     -0.2799     -0.2828     -0.2853     -0.2873     -0.2892     -0.2918     -0.2940    
      -0.2964     -0.2986     -0.3009     -0.3034     -0.3066     -0.3099     -0.3132     -0.3163     -0.3192     -0.3218    
      -0.3238     -0.3257     -0.3281     -0.3315     -0.3361     -0.3416     -0.3478     -0.3550     -0.3638     -0.3702    
      -0.3670     -0.4235     -0.4378     -0.4194     -0.4030     -0.3927     -0.3873     -0.3855     -0.3865     -0.3866    
      -0.3851     -0.3426       0.000      -999.0    
  53   -999.0      6.6245E-02  0.1482      0.1449      0.1040      4.8305E-02 -1.3311E-02 -7.4832E-02 -0.1225     -0.1326    
      -9.6471E-02 -6.4042E-02 -0.1372     -0.2125     -0.2664     -0.2973     -0.2884     -0.2821     -0.2798     -0.2804    
      -0.2832     -0.2862     -0.2882     -0.2911     -0.2932     -0.2951     -0.2968     -0.2985     -0.3009     -0.3029    
      -0.3049     -0.3069     -0.3089     -0.3112     -0.3140     -0.3170     -0.3199     -0.3231     -0.3259     -0.3281    
      -0.3299     -0.3316     -0.3338     -0.3369     -0.3415     -0.3474     -0.3530     -0.3604     -0.3663     -0.3697    
      -0.3648     -0.4006     -0.4211     -0.4170     -0.4071     -0.3988     -0.3939     -0.3919     -0.3928     -0.3926    
      -0.3918     -0.3497       0.000      -999.0    
  54   -999.0      4.9865E-02  0.1155      0.1097      6.9888E-02  1.5281E-02 -4.6687E-02 -0.1112     -0.1629     -0.1623    
      -4.9855E-02  0.1499     -2.4367E-02 -0.2063     -0.2790     -0.3140     -0.3029     -0.2952     -0.2927     -0.2933    
      -0.2961     -0.2981     -0.2988     -0.3004     -0.3016     -0.3035     -0.3055     -0.3075     -0.3102     -0.3123    
      -0.3144     -0.3164     -0.3182     -0.3201     -0.3224     -0.3244     -0.3258     -0.3290     -0.3325     -0.3350    
      -0.3369     -0.3386     -0.3406     -0.3433     -0.3462     -0.3486     -0.3533     -0.3595     -0.3671     -0.3746    
      -0.3855     -0.4036     -0.4123     -0.4124     -0.4075     -0.4022     -0.3984     -0.3970     -0.3980     -0.3979    
      -0.3976     -0.3560       0.000      -999.0    
  55   -999.0      3.5233E-02  8.6282E-02  7.7474E-02  3.8459E-02 -1.4792E-02 -7.6170E-02 -0.1426     -0.2009     -0.2095    
      -7.5236E-02  0.3018      1.4886E-02 -0.2244     -0.2897     -0.3233     -0.3127     -0.3021     -0.2978     -0.3016    
      -0.3059     -0.3077     -0.3075     -0.3077     -0.3072     -0.3072     -0.3079     -0.3089     -0.3108     -0.3124    
      -0.3141     -0.3158     -0.3174     -0.3194     -0.3216     -0.3242     -0.3264     -0.3289     -0.3314     -0.3335    
      -0.3352     -0.3370     -0.3390     -0.3421     -0.3459     -0.3503     -0.3556     -0.3621     -0.3701     -0.3798    
      -0.3926     -0.4031     -0.4078     -0.4090     -0.4074     -0.4044     -0.4021     -0.4016     -0.4029     -0.4032    
      -0.4037     -0.3625       0.000      -999.0    
  56   -999.0      2.0259E-02  5.5869E-02  4.3461E-02  5.1274E-03 -4.6357E-02 -0.1061     -0.1723     -0.2362     -0.2735    
      -0.2555     -0.2055     -0.2449     -0.2866     -0.3015     -0.3088     -0.3083     -0.3060     -0.3046     -0.3050    
      -0.3070     -0.3082     -0.3082     -0.3093     -0.3097     -0.3102     -0.3108     -0.3115     -0.3130     -0.3143    
      -0.3155     -0.3170     -0.3186     -0.3204     -0.3229     -0.3255     -0.3281     -0.3308     -0.3333     -0.3354    
      -0.3372     -0.3389     -0.3410     -0.3442     -0.3485     -0.3536     -0.3595     -0.3661     -0.3740     -0.3842    
      -0.3960     -0.4028     -0.4058     -0.4074     -0.4075     -0.4066     -0.4058     -0.4061     -0.4081     -0.4095    
      -0.4106     -0.3701       0.000      -999.0    
  57   -999.0      5.0025E-03  2.4624E-02  7.7598E-03 -3.0295E-02 -7.9440E-02 -0.1356     -0.1971     -0.2585     -0.3078    
      -0.3340     -0.3400     -0.3463     -0.3353     -0.3244     -0.3172     -0.3139     -0.3123     -0.3116     -0.3118    
      -0.3133     -0.3145     -0.3145     -0.3157     -0.3164     -0.3170     -0.3177     -0.3184     -0.3199     -0.3211    
      -0.3223     -0.3237     -0.3250     -0.3268     -0.3290     -0.3315     -0.3338     -0.3363     -0.3386     -0.3405    
      -0.3421     -0.3436     -0.3457     -0.3489     -0.3533     -0.3584     -0.3644     -0.3708     -0.3781     -0.3881    
      -0.3985     -0.4031     -0.4053     -0.4072     -0.4084     -0.4090     -0.4097     -0.4111     -0.4140     -0.4169    
      -0.4192     -0.3792       0.000      -999.0    
  58   -999.0     -1.0017E-02 -6.7845E-03 -2.8936E-02 -6.6754E-02 -0.1129     -0.1634     -0.2157     -0.2651     -0.3048    
      -0.3295     -0.3407     -0.3489     -0.3415     -0.3327     -0.3264     -0.3231     -0.3215     -0.3207     -0.3207    
      -0.3219     -0.3229     -0.3231     -0.3245     -0.3252     -0.3258     -0.3266     -0.3273     -0.3286     -0.3297    
      -0.3309     -0.3321     -0.3333     -0.3350     -0.3369     -0.3392     -0.3413     -0.3435     -0.3456     -0.3472    
      -0.3487     -0.3500     -0.3520     -0.3550     -0.3592     -0.3641     -0.3699     -0.3758     -0.3826     -0.3921    
      -0.4014     -0.4045     -0.4062     -0.4082     -0.4102     -0.4120     -0.4138     -0.4165     -0.4206     -0.4256    
      -0.4292     -0.3900       0.000      -999.0    
  59   -999.0     -2.4586E-02 -3.7658E-02 -6.5691E-02 -0.1033     -0.1455     -0.1889     -0.2302     -0.2659     -0.2930    
      -0.3106     -0.3213     -0.3318     -0.3323     -0.3309     -0.3293     -0.3284     -0.3280     -0.3278     -0.3283    
      -0.3299     -0.3313     -0.3319     -0.3334     -0.3342     -0.3350     -0.3358     -0.3365     -0.3378     -0.3389    
      -0.3400     -0.3411     -0.3423     -0.3438     -0.3457     -0.3478     -0.3498     -0.3518     -0.3537     -0.3552    
      -0.3564     -0.3577     -0.3594     -0.3623     -0.3662     -0.3708     -0.3762     -0.3816     -0.3876     -0.3963    
      -0.4050     -0.4071     -0.4084     -0.4105     -0.4129     -0.4155     -0.4187     -0.4230     -0.4288     -0.4358    
      -0.4409     -0.4019       0.000      -999.0    
  60   -999.0     -3.8284E-02 -6.7686E-02 -0.1016     -0.1389     -0.1767     -0.2124     -0.2439     -0.2693     -0.2883    
      -0.3017     -0.3112     -0.3219     -0.3262     -0.3289     -0.3306     -0.3319     -0.3330     -0.3340     -0.3354    
      -0.3373     -0.3392     -0.3403     -0.3420     -0.3431     -0.3442     -0.3450     -0.3458     -0.3471     -0.3482    
      -0.3493     -0.3505     -0.3516     -0.3531     -0.3550     -0.3570     -0.3588     -0.3608     -0.3625     -0.3639    
      -0.3651     -0.3661     -0.3678     -0.3705     -0.3741     -0.3781     -0.3830     -0.3875     -0.3926     -0.4006    
      -0.4090     -0.4108     -0.4117     -0.4139     -0.4167     -0.4204     -0.4251     -0.4311     -0.4386     -0.4475    
      -0.4549     -0.4157       0.000      -999.0    
  61   -999.0     -5.1917E-02 -9.7732E-02 -0.1375     -0.1738     -0.2069     -0.2356     -0.2595     -0.2783     -0.2927    
      -0.3033     -0.3117     -0.3214     -0.3267     -0.3310     -0.3344     -0.3372     -0.3393     -0.3412     -0.3430    
      -0.3452     -0.3472     -0.3487     -0.3507     -0.3521     -0.3535     -0.3547     -0.3557     -0.3572     -0.3584    
      -0.3597     -0.3609     -0.3621     -0.3633     -0.3650     -0.3669     -0.3686     -0.3704     -0.3720     -0.3732    
      -0.3743     -0.3753     -0.3768     -0.3790     -0.3822     -0.3858     -0.3899     -0.3936     -0.3974     -0.4037    
      -0.4127     -0.4150     -0.4162     -0.4188     -0.4224     -0.4272     -0.4331     -0.4406     -0.4500     -0.4613    
      -0.4714     -0.4338       0.000      -999.0    
  62   -999.0     -6.9270E-02 -0.1315     -0.1759     -0.2110     -0.2395     -0.2623     -0.2804     -0.2944     -0.3049    
      -0.3132     -0.3197     -0.3272     -0.3322     -0.3371     -0.3410     -0.3441     -0.3467     -0.3487     -0.3507    
      -0.3531     -0.3555     -0.3573     -0.3593     -0.3609     -0.3622     -0.3632     -0.3640     -0.3652     -0.3661    
      -0.3671     -0.3680     -0.3690     -0.3701     -0.3716     -0.3732     -0.3748     -0.3764     -0.3778     -0.3790    
      -0.3799     -0.3809     -0.3822     -0.3842     -0.3872     -0.3906     -0.3946     -0.3983     -0.4024     -0.4090    
      -0.4176     -0.4201     -0.4214     -0.4246     -0.4289     -0.4346     -0.4417     -0.4512     -0.4636     -0.4777    
      -0.4910     -0.4559       0.000      -999.0    
  63   -999.0     -8.1419E-02 -0.1446     -0.1887     -0.2213     -0.2463     -0.2658     -0.2810     -0.2929     -0.3024    
      -0.3099     -0.3160     -0.3227     -0.3293     -0.3353     -0.3398     -0.3433     -0.3460     -0.3482     -0.3504    
      -0.3529     -0.3554     -0.3574     -0.3595     -0.3611     -0.3624     -0.3635     -0.3645     -0.3657     -0.3668    
      -0.3678     -0.3689     -0.3700     -0.3712     -0.3727     -0.3744     -0.3760     -0.3776     -0.3791     -0.3803    
      -0.3813     -0.3823     -0.3837     -0.3859     -0.3890     -0.3926     -0.3970     -0.4012     -0.4060     -0.4132    
      -0.4200     -0.4230     -0.4255     -0.4294     -0.4344     -0.4410     -0.4500     -0.4625     -0.4784     -0.4960    
      -0.5119     -0.4788       0.000      -999.0    
  64   -999.0     -0.1080     -0.1649     -0.2061     -0.2365     -0.2595     -0.2771     -0.2908     -0.3014     -0.3099    
      -0.3166     -0.3221     -0.3280     -0.3338     -0.3386     -0.3417     -0.3434     -0.3445     -0.3452     -0.3462    
      -0.3475     -0.3492     -0.3507     -0.3524     -0.3538     -0.3551     -0.3562     -0.3571     -0.3584     -0.3596    
      -0.3608     -0.3619     -0.3629     -0.3641     -0.3656     -0.3672     -0.3686     -0.3700     -0.3713     -0.3722    
      -0.3730     -0.3738     -0.3749     -0.3766     -0.3790     -0.3816     -0.3846     -0.3877     -0.3912     -0.3971    
      -0.4028     -0.4058     -0.4085     -0.4130     -0.4198     -0.4293     -0.4421     -0.4568     -0.4708     -0.4887    
      -0.5035     -0.4751       0.000      -999.0    
  65   -999.0       0.000       0.000       0.000       0.000       0.000       0.000       0.000       0.000       0.000    
        0.000       0.000       0.000       0.000       0.000       0.000       0.000       0.000       0.000       0.000    
        0.000       0.000       0.000       0.000       0.000       0.000       0.000       0.000       0.000       0.000    
        0.000       0.000       0.000       0.000       0.000       0.000       0.000       0.000       0.000       0.000    
        0.000       0.000       0.000       0.000       0.000       0.000       0.000       0.000       0.000       0.000    
        0.000       0.000       0.000       0.000       0.000       0.000       0.000       0.000       0.000       0.000    
        0.000       0.000       0.000      -999.0    
  66   -999.0      -999.0      -999.0      -999.0      -999.0      -999.0      -999.0      -999.0      -999.0      -999.0    
       -999.0      -999.0      -999.0      -999.0      -999.0      -999.0      -999.0      -999.0      -999.0      -999.0    
       -999.0      -999.0      -999.0      -999.0      -999.0      -999.0      -999.0      -999.0      -999.0      -999.0    
       -999.0      -999.0      -999.0      -999.0      -999.0      -999.0      -999.0      -999.0      -999.0      -999.0    
       -999.0      -999.0      -999.0      -999.0      -999.0      -999.0      -999.0      -999.0      -999.0      -999.0    
       -999.0      -999.0      -999.0      -999.0      -999.0      -999.0      -999.0      -999.0      -999.0      -999.0    
       -999.0      -999.0      -999.0      -999.0    

 DRAWDOWN WILL BE SAVED ON UNIT   35 AT END OF TIME STEP   1, STRESS PERIOD    1
1
  VOLUMETRIC BUDGET FOR ENTIRE MODEL AT END OF TIME STEP  1 IN STRESS PERIOD   1
  ------------------------------------------------------------------------------

     CUMULATIVE VOLUMES      L**3       RATES FOR THIS TIME STEP      L**3/T
     ------------------                 ------------------------

           IN:                                      IN:
           ---                                      ---
             STORAGE =    30538452.0000               STORAGE =     6107690.5000
       CONSTANT HEAD =      135784.1719         CONSTANT HEAD =       27156.8340
               WELLS =   412880480.0000                 WELLS =    82576096.0000
            RECHARGE =    64056780.0000              RECHARGE =    12811356.0000

            TOTAL IN =   507611488.0000              TOTAL IN =   101522304.0000

          OUT:                                     OUT:
          ----                                     ----
             STORAGE =    32804708.0000               STORAGE =     6560941.5000
       CONSTANT HEAD =    61926396.0000         CONSTANT HEAD =    12385279.0000
               WELLS =   412880480.0000                 WELLS =    82576096.0000
            RECHARGE =           0.0000              RECHARGE =           0.0000

           TOTAL OUT =   507611584.0000             TOTAL OUT =   101522320.0000

            IN - OUT =         -96.0000              IN - OUT =         -16.0000

 PERCENT DISCREPANCY =           0.00     PERCENT DISCREPANCY =           0.00






          TIME SUMMARY AT END OF TIME STEP   1 IN STRESS PERIOD    1
                    SECONDS     MINUTES      HOURS       DAYS        YEARS
                    -----------------------------------------------------------
   TIME STEP LENGTH 1.57788E+08 2.62980E+06  43830.      1826.2      5.0000    
 STRESS PERIOD TIME 1.57788E+08 2.62980E+06  43830.      1826.2      5.0000    
         TOTAL TIME 1.57788E+08 2.62980E+06  43830.      1826.2      5.0000    
1
