 LISTING FILE: optdemo_fine.out
                         UNIT  16
# Transport package input files                                                                                                                                                                         

 OPENING optdemo_fine.btn
 FILE TYPE:BTN   UNIT   1

 OPENING optdemo_fine.adv
 FILE TYPE:ADV   UNIT   2

 OPENING optdemo_fine.dsp
 FILE TYPE:DSP   UNIT   3

 OPENING optdemo_fine.ssm
 FILE TYPE:SSM   UNIT   4

 OPENING optdemo_fine.rct
 FILE TYPE:RCT   UNIT   8

 OPENING optdemo_fine.gcg
 FILE TYPE:GCG   UNIT   9
# Flow-Transport Link input file                                                                                                                                                                        

 OPENING optdemo_fine.ftl
 FILE TYPE:FTL   UNIT  10
# Uncomment the following lines to override                                                                                                                                                             
# the default names of optional MT3DMS output files                                                                                                                                                     
# mt3d001.ucn, mt3d001.obs, mt3d001.mas, mt3d.cnf.                                                                                                                                                      
# The unit numbers for these files are preset in the                                                                                                                                                    
# MT3DMS code.                                                                                                                                                                                          
# data(binary) 201 species1.ucn                                                                                                                                                                         
# data         401 species1.obs                                                                                                                                                                         
# data         601 species1.mas                                                                                                                                                                         
# data         17  model_a.cnf                                                                                                                                                                          

                              +++++++++++++++++++++++++++++++++++++++++++++++++++++++++++++++++++++++
                              +                                                                     +
                              +                               MT3DMS                                +
                              +             A Modular 3D Multi-Species Transport Model              +
                              +    For Simulation of Advection, Dispersion and Chemical Reactions   +
                              +                of Contaminants in Groundwater Systems               +
                              +                                                                     +
                              +++++++++++++++++++++++++++++++++++++++++++++++++++++++++++++++++++++++

  ----- 
 | M T | run 109 same as 108 but set Kd=0.24 (0.008475); 8/31/2000; from richard smith   
 | 3 D | adapted for optimization demo project by c zheng; last modification 3/14/2001   
  ----- 
 THE TRANSPORT MODEL CONSISTS OF     5 LAYER(S)  132 ROW(S)  125 COLUMN(S)
 NUMBER OF STRESS PERIOD(S) FOR TRANSPORT SIMULATION =    1
 NUMBER OF ALL COMPONENTS INCLUDED IN SIMULATION =    2
 NUMBER OF MOBILE COMPONENTS INCLUDED IN SIMULATION =    2
 UNIT FOR TIME IS   yr;  UNIT FOR LENGTH IS   ft;  UNIT FOR MASS IS   kg
 PACKAGES INCLUDED IN CURRENT SIMULATION:
   1  2  3  4  5  6  7  8  9 10
   T  T  T  T  T  F  F  F  F  F

 BTN4 -- BASIC TRANSPORT PACKAGE, VERSION 4, AUGUST 2001, INPUT READ FROM UNIT  1
    1749514 ELEMENTS OF THE  X ARRAY USED BY THE BTN PACKAGE
     165005 ELEMENTS OF THE IX ARRAY USED BY THE BTN PACKAGE

 FMI4 -- FLOW MODEL INTERFACE PACKAGE, VERSION 4, AUGUST 2001, INPUT READ FROM UNIT 10
 FLOW MODEL IS TRANSIENT
 FLOW MODEL CONTAINS CONSTANT-HEAD CELLS

 ADV4 -- ADVECTION PACKAGE, VERSION 4, AUGUST 2001, INPUT READ FROM UNIT  2
 ADVECTION IS SOLVED WITH THE UPSTREAM FINITE DIFFERENCE SCHEME
 COURANT NUMBER ALLOWED IN SOLVING THE ADVECTION TERM =  1.00    
          0 ELEMENTS OF THE  X ARRAY USED BY THE ADV PACKAGE
          0 ELEMENTS OF THE IX ARRAY USED BY THE ADV PACKAGE

 DSP4 -- DISPERSION PACKAGE, VERSION 4, AUGUST 2001, INPUT READ FROM UNIT  3
     825015 ELEMENTS OF THE  X ARRAY USED BY THE DSP PACKAGE
          0 ELEMENTS OF THE IX ARRAY USED BY THE DSP PACKAGE

 SSM4 -- SINK & SOURCE MIXING PACKAGE, VERSION 4, AUGUST 2001, INPUT READ FROM UNIT  4

 HEADER LINE OF THE SSM PACKAGE INPUT FILE:
  T F T F F F                                                                                                                                                                                            
 MAJOR STRESS COMPONENTS PRESENT IN THE FLOW MODEL:
 o WELL
 o RECHARGE
 MAXIMUM NUMBER OF POINT SINKS/SOURCES =    5008
      89564 ELEMENTS OF THE  X ARRAY USED BY THE SSM PACKAGE
      16500 ELEMENTS OF THE IX ARRAY BY THE SSM PACKAGE

 RCT4 -- CHEMICAL REACTION PACKAGE, VERSION 4, AUGUST 2001, INPUT READ FROM UNIT  8
 TYPE OF SORPTION SELECTED IS [LINEAR]
 NO FIRST-ORDER RATE REACTION IS SIMULATED
 REACTION COEFFICIENTS ASSIGNED CELL-BY-CELL
 INITIAL SORBED/IMMOBILE PHASE CONCENTRATION ASSIGNED BY DEFAULT
     412500 ELEMENTS OF THE  X ARRAY USED BY THE RCT PACKAGE
          0 ELEMENTS OF THE IX ARRAY USED BY THE RCT PACKAGE

 GCG4 -- GENERALIZED CONJUGATE GRADIENT SOLVER PACKAGE, VERSION 4, AUGUST 2001 INPUT READ FROM UNIT  9
 MAXIMUM OF    1 OUTER ITERATIONS
        AND   60 INNER ITERATIONS ALLOWED FOR CLOSURE
 THE PRECONDITIONING TYPE SELECTED IS MODIFIED INCOMPLETE CHOLESKY (MIC).
 DISPERSION CROSS TERMS LUMPED INTO RIGHT-HAND-SIDE
    1815060 ELEMENTS OF THE  X ARRAY USED BY THE GCG PACKAGE
        180 ELEMENTS OF THE IX ARRAY USED BY THE GCG PACKAGE

 ................................................................
    4891654 ELEMENTS OF THE  X ARRAY USED OUT OF  999999999
     181686 ELEMENTS OF THE IX ARRAY USED OUT OF  999999999
 ................................................................

 LAYER NUMBER  AQUIFER TYPE
 ------------  ------------
       1            1
       2            3
       3            3
       4            3
       5            3

                           WIDTH ALONG ROWS (DELR)  READ ON UNIT  1 USING FORMAT: "           (10G15.6)"
                           -----------------------------------------------------------------------------

            1           2           3           4           5           6           7           8           9          10
           11          12          13          14          15          16          17          18          19          20
           21          22          23          24          25          26          27          28          29          30
           31          32          33          34          35          36          37          38          39          40
           41          42          43          44          45          46          47          48          49          50
           51          52          53          54          55          56          57          58          59          60
           61          62          63          64          65          66          67          68          69          70
           71          72          73          74          75          76          77          78          79          80
           81          82          83          84          85          86          87          88          89          90
           91          92          93          94          95          96          97          98          99         100
          101         102         103         104         105         106         107         108         109         110
          111         112         113         114         115         116         117         118         119         120
          121         122         123         124         125
 ........................................................................................................................
   1    556.7       556.7       556.7       556.0       505.4       459.5       417.7       379.7       345.2       313.8    
        285.3       259.4       235.8       214.4       194.9       177.2       161.1       146.4       133.1       121.0    
        110.0       100.0       100.0       110.0       116.2       116.2       116.2       116.2       103.2       97.44    
        88.58       80.53       73.21       66.55       60.50       55.00       50.00       50.00       54.81       54.81    
        54.81       54.81       54.81       43.72       43.72       43.72       40.26       36.60       33.28       30.25    
        27.50       25.00       21.64       21.64       21.64       26.21       26.21       25.00       24.58       24.58    
        24.58       24.58       24.58       24.58       25.00       27.50       30.25       33.28       36.60       37.92    
        37.92       37.92       37.92       37.92       37.92       36.60       33.28       30.25       27.50       25.00    
        22.90       22.90       22.90       28.09       37.37       40.73       55.00       60.50       66.55       73.21    
        80.53       88.13       88.13       88.13       88.13       88.13       130.1       130.1       130.1       130.1    
        121.0       110.0       100.0       110.0       121.0       133.1       146.4       161.1       177.2       194.9    
        214.4       235.8       259.4       285.3       313.8       345.2       379.7       417.7       459.5       505.4    
        556.0       611.6       660.7       660.7       660.7    

                           WIDTH ALONG COLS (DELC)  READ ON UNIT  1 USING FORMAT: "           (10G15.6)"
                           -----------------------------------------------------------------------------

            1           2           3           4           5           6           7           8           9          10
           11          12          13          14          15          16          17          18          19          20
           21          22          23          24          25          26          27          28          29          30
           31          32          33          34          35          36          37          38          39          40
           41          42          43          44          45          46          47          48          49          50
           51          52          53          54          55          56          57          58          59          60
           61          62          63          64          65          66          67          68          69          70
           71          72          73          74          75          76          77          78          79          80
           81          82          83          84          85          86          87          88          89          90
           91          92          93          94          95          96          97          98          99         100
          101         102         103         104         105         106         107         108         109         110
          111         112         113         114         115         116         117         118         119         120
          121         122         123         124         125         126         127         128         129         130
          131         132
 ........................................................................................................................
   1    513.3       513.3       513.3       513.3       513.3       492.5       447.7       407.0       370.0       336.4    
        305.8       278.0       252.7       229.7       208.9       189.9       172.6       156.9       142.7       129.7    
        117.9       107.2       97.44       88.58       80.53       73.21       66.55       60.50       55.00       50.00    
        50.00       55.00       60.50       66.55       58.35       49.04       39.86       39.86       39.86       36.60    
        33.28       30.25       27.50       25.00       24.80       24.80       24.80       24.80       24.80       24.80    
        24.80       24.80       25.00       25.69       25.69       25.69       25.69       25.69       25.69       25.00    
        24.80       24.80       24.80       24.80       24.80       24.80       24.80       24.80       25.00       27.50    
        30.25       33.28       36.60       40.26       44.29       46.58       46.58       46.58       56.89       56.89    
        56.89       56.89       56.89       55.00       50.00       55.00       60.50       66.55       73.21       80.53    
        88.58       97.44       101.5       101.5       101.5       101.5       101.5       147.9       147.9       147.9    
        146.4       133.1       121.0       110.0       100.0       90.91       90.91       90.91       90.91       100.0    
        110.0       121.0       133.1       146.4       161.1       177.2       194.9       214.4       235.8       259.4    
        285.3       313.8       345.2       379.7       417.7       459.5       505.4       556.0       611.6       647.9    
        647.9       647.9    

                           TOP ELEV. OF 1ST LAYER   READ ON UNIT  1 USING FORMAT: "           (10G15.6)"
                           -----------------------------------------------------------------------------

            1           2           3           4           5           6           7           8           9          10
           11          12          13          14          15          16          17          18          19          20
           21          22          23          24          25          26          27          28          29          30
           31          32          33          34          35          36          37          38          39          40
           41          42          43          44          45          46          47          48          49          50
           51          52          53          54          55          56          57          58          59          60
           61          62          63          64          65          66          67          68          69          70
           71          72          73          74          75          76          77          78          79          80
           81          82          83          84          85          86          87          88          89          90
           91          92          93          94          95          96          97          98          99         100
          101         102         103         104         105         106         107         108         109         110
          111         112         113         114         115         116         117         118         119         120
          121         122         123         124         125
 ........................................................................................................................
   1    675.7       675.7       675.7       675.7       675.7       675.7       675.7       675.7       675.7       675.7    
        675.7       675.7       675.7       675.7       675.7       675.7       675.7       675.7       675.7       675.7    
        675.7       675.7       675.7       675.7       675.7       675.7       675.7       675.7       675.7       675.7    
        675.7       675.7       675.7       675.7       675.7       675.7       675.7       675.7       675.7       675.7    
        675.7       675.7       675.7       675.7       675.7       675.7       675.7       675.7       675.7       675.7    
        675.7       675.7       675.7       675.7       675.7       675.7       675.7       675.7       675.7       675.7    
        675.7       675.7       675.7       675.7       675.7       675.7       675.7       675.7       675.7       675.7    
        675.7       675.7       675.7       675.7       675.7       675.7       675.7       675.7       675.7       675.7    
        675.7       675.7       675.7       675.7       675.7       675.7       675.7       675.7       675.7       675.7    
        675.7       675.7       675.7       675.7       675.7       675.7       675.7       675.7       675.7       675.7    
        675.7       675.7       675.7       675.7       675.7       675.7       675.7       675.7       675.7       675.7    
        675.7       675.7       675.7       675.7       675.7       675.7       675.7       675.7       675.7       675.7    
        675.7       675.7       675.7       675.7       675.7    
   2    675.7       675.7       675.7       675.7       675.7       675.7       675.7       675.7       675.7       675.7    
        675.7       675.7       675.7       675.7       675.7       675.7       675.7       675.7       675.7       675.7    
        675.7       675.7       675.7       675.7       675.7       675.7       675.7       675.7       675.7       675.7    
        675.7       675.7       675.7       675.7       675.7       675.7       675.7       675.7       675.7       675.7    
        675.7       675.7       675.7       675.7       675.7       675.7       675.7       675.7       675.7       675.7    
        675.7       675.7       675.7       675.7       675.7       675.7       675.7       675.7       675.7       675.7    
        675.7       675.7       675.7       675.7       675.7       675.7       675.7       675.7       675.7       675.7    
        675.7       675.7       675.7       675.7       675.7       675.7       675.7       675.7       675.7       675.7    
        675.7       675.7       675.7       675.7       675.7       675.7       675.7       675.7       675.7       675.7    
        675.7       675.7       675.7       675.7       675.7       675.7       675.7       675.7       675.7       675.7    
        675.7       675.7       675.7       675.7       675.7       675.7       675.7       675.7       675.7       675.7    
        675.7       675.7       675.7       675.7       675.7       675.7       675.7       675.7       675.7       675.7    
        675.7       675.7       675.7       675.7       675.7    
   3    675.7       613.5       616.9       620.1       620.1       623.6       626.8       629.9       631.3       637.3    
        639.7       637.2       633.2       631.7       630.0       629.4       627.7       626.7       626.4       625.2    
        624.1       623.4       623.4       623.4       623.4       623.4       623.4       623.8       624.9       625.9    
        629.4       629.9       630.2       630.8       631.4       632.0       632.5       632.9       633.1       633.2    
        633.4       633.9       634.9       635.8       636.8       637.1       636.0       636.1       636.3       636.4    
        636.5       636.5       636.6       636.7       636.8       635.7       633.3       631.7       631.8       632.0    
        631.9       631.8       631.9       632.2       632.5       632.6       632.8       633.0       633.1       633.2    
        633.2       633.2       633.2       633.2       633.2       633.2       633.2       633.2       633.2       633.2    
        633.2       633.2       633.2       633.2       633.2       633.2       633.2       633.2       633.2       633.2    
        633.2       632.8       629.9       629.9       623.6       616.3       613.3       613.7       619.7       626.2    
        629.9       633.3       636.7       642.2       652.4       652.9       653.4       654.9       656.1       660.1    
        661.2       651.9       643.2       624.8       613.7       615.3       665.8       675.8       669.4       664.8    
        666.0       667.0       664.0       669.0       675.7    
   4    675.7       613.5       610.2       615.2       620.1       625.4       626.6       626.6       624.5       623.8    
        629.5       634.3       636.4       636.5       636.5       636.7       638.1       640.5       643.1       643.9    
        645.2       649.3       649.6       649.0       647.0       644.4       643.2       642.7       641.1       639.0    
        637.3       636.6       636.4       635.7       634.7       633.5       632.4       631.3       630.6       628.8    
        626.6       624.8       622.9       620.6       618.9       617.1       614.8       614.3       613.9       613.8    
        613.6       613.6       613.5       613.5       613.5       613.5       613.5       613.5       613.5       613.5    
        613.5       613.5       613.5       613.5       613.5       613.5       613.6       614.7       616.2       616.7    
        616.8       616.8       616.9       617.0       617.3       617.5       617.9       618.3       618.6       618.9    
        619.1       619.3       619.7       620.0       620.1       620.1       620.1       620.2       620.6       622.9    
        623.4       623.3       622.9       616.8       609.8       605.9       604.5       611.0       621.7       626.4    
        630.0       636.5       636.5       637.4       638.7       639.6       639.9       641.2       642.8       643.3    
        637.2       636.5       636.2       631.7       635.0       648.6       670.8       675.9       678.9       679.1    
        672.7       669.3       665.2       659.4       675.7    
   5    675.7       609.8       603.7       603.7       607.0       614.5       623.3       632.1       637.9       642.8    
        642.9       642.8       643.4       642.6       640.5       639.7       638.7       637.1       633.7       630.4    
        631.4       632.5       633.1       633.3       633.9       635.2       636.2       636.5       637.0       637.9    
        638.9       639.4       638.2       636.7       637.3       637.2       636.2       635.8       634.2       632.6    
        629.6       625.9       623.4       621.5       620.8       620.1       619.9       620.5       619.9       619.4    
        619.7       619.8       619.9       620.0       620.0       620.1       620.1       620.1       620.1       620.1    
        620.1       620.1       620.1       620.1       620.1       620.1       620.1       620.1       620.1       620.1    
        620.1       620.1       620.1       620.1       620.1       620.1       620.1       620.1       620.1       620.1    
        620.1       620.1       620.1       620.1       620.1       620.1       620.1       621.2       623.2       622.8    
        622.0       621.6       623.4       623.4       623.2       624.9       622.8       620.9       625.0       628.8    
        636.6       649.7       652.8       652.4       651.3       647.3       646.1       635.0       625.2       622.9    
        620.5       645.4       665.9       684.7       689.0       687.9       685.7       682.6       672.8       670.1    
        662.7       659.4       663.1       668.0       675.7    
   6    675.7       600.4       607.0       613.5       613.5       613.5       607.0       610.8       615.9       623.6    
        629.4       636.0       642.3       643.5       648.2       649.6       653.8       655.5       656.1       655.8    
        654.7       653.6       653.0       652.8       651.5       648.1       646.6       640.0       636.0       635.1    
        634.1       630.6       628.3       625.8       619.6       616.2       610.8       608.8       606.1       604.4    
        603.9       603.7       603.7       603.7       603.7       603.7       603.7       603.7       603.7       603.7    
        603.7       603.7       603.7       603.7       603.9       604.9       606.2       606.9       607.2       608.2    
        609.4       610.2       610.4       611.3       612.7       613.4       613.7       615.2       616.7       617.5    
        621.2       623.3       623.4       623.4       623.4       623.4       623.4       623.5       624.2       624.8    
        624.9       624.8       625.1       626.0       626.6       626.6       626.6       626.6       626.7       629.5    
        629.9       629.9       630.3       633.2       633.4       634.0       635.1       639.3       639.7       634.3    
        620.8       609.4       606.5       606.4       620.9       635.1       636.5       635.3       632.7       637.0    
        647.8       662.8       661.5       657.1       660.4       663.7       672.6       678.6       668.7       668.5    
        666.0       659.4       659.1       651.8       675.7    
   7    675.7       597.1       594.1       604.3       611.2       617.6       620.5       623.3       625.4       625.3    
        626.3       626.6       626.5       623.5       623.4       624.3       626.0       629.9       631.0       633.7    
        639.1       639.8       640.3       642.1       644.6       646.1       643.9       640.8       640.5       639.4    
        639.7       640.0       640.8       642.1       640.7       640.7       639.1       638.5       636.5       632.3    
        626.3       624.1       622.1       621.5       621.1       620.6       620.4       620.2       620.1       620.1    
        620.0       619.9       619.9       619.7       619.7       620.4       621.6       622.1       622.2       623.9    
        626.9       628.5       628.5       629.5       631.7       633.5       633.6       634.7       636.2       636.4    
        636.3       636.1       635.8       635.5       635.0       634.6       634.3       634.0       633.7       633.5    
        633.4       633.3       633.3       633.2       633.1       633.1       632.9       632.4       631.7       631.0    
        628.9       626.7       626.1       619.5       618.6       616.9       613.6       613.5       608.7       596.5    
        590.5       590.5       591.3       601.1       617.0       631.0       639.9       652.5       660.1       667.0    
        669.0       670.5       672.6       669.3       666.1       664.0       662.1       659.4       652.9       652.9    
        652.9       653.3       661.2       659.6       675.7    
   8    675.7       607.2       603.7       603.7       603.6       600.5       603.7       609.9       615.3       620.3    
        623.1       627.5       629.8       632.5       630.5       629.9       629.9       629.9       629.9       629.9    
        629.9       629.9       629.9       629.7       628.9       627.6       626.8       626.6       624.3       620.5    
        616.8       612.9       610.3       610.7       611.4       612.5       612.2       612.6       613.0       613.4    
        613.5       613.5       613.5       613.7       614.4       615.3       616.6       616.9       618.2       619.7    
        620.2       621.6       624.0       625.8       626.6       627.0       628.2       629.6       630.2       630.8    
        632.3       634.3       635.4       636.1       637.2       638.2       638.7       639.1       639.3       639.5    
        639.7       639.8       639.8       639.9       640.1       640.3       640.6       641.0       641.3       641.6    
        641.8       642.0       642.3       642.5       642.9       642.9       643.0       643.0       643.0       644.5    
        644.3       642.6       633.4       630.0       626.6       623.0       620.2       610.3       601.0       591.4    
        588.2       590.6       597.4       610.7       623.0       635.8       642.9       649.0       656.3       659.6    
        661.3       662.7       664.3       666.0       666.0       666.7       669.3       672.4       666.8       661.7    
        652.9       639.8       640.3       644.8       675.7    
   9    675.7       597.1       603.7       607.2       609.8       607.0       606.9       603.7       601.2       601.1    
        603.6       606.8       610.2       609.6       613.2       617.2       620.9       623.1       623.7       625.8    
        628.3       629.7       633.0       633.2       633.2       633.2       632.4       629.9       629.1       625.9    
        623.6       623.3       622.9       622.0       620.9       619.6       618.3       617.7       617.0       616.8    
        616.7       616.5       616.1       616.2       619.0       619.3       621.3       623.7       624.0       625.4    
        626.5       626.6       626.6       626.6       626.5       626.4       626.3       626.1       625.9       625.6    
        625.4       625.1       624.8       624.6       624.3       624.0       623.8       623.6       623.5       623.4    
        623.4       623.4       623.6       623.8       624.1       624.5       624.2       624.0       624.4       624.5    
        623.7       622.9       622.7       622.6       620.1       620.1       620.2       620.8       621.6       623.2    
        624.7       623.1       620.3       617.6       617.6       617.2       612.6       601.0       594.2       591.7    
        590.5       599.7       616.3       629.7       643.1       649.6       652.4       655.0       662.7       662.7    
        665.8       665.8       662.7       662.5       659.1       653.5       649.9       656.2       659.4       662.6    
        662.7       649.5       643.0       633.7       675.7    
  10    675.7       592.5       592.4       596.3       599.9       599.8       608.1       610.7       610.2       603.7    
        603.8       607.0       604.6       598.3       596.3       594.4       593.9       596.6       601.9       603.5    
        603.9       605.4       607.6       611.8       613.5       617.1       618.3       619.7       623.3       623.5    
        624.1       626.5       628.1       629.4       629.8       629.9       630.1       630.3       630.6       630.0    
        630.2       630.7       631.5       633.2       634.2       636.2       636.7       638.4       639.0       638.8    
        638.6       638.2       638.0       638.2       639.1       640.1       640.4       640.1       640.0       639.9    
        639.8       639.8       639.8       639.7       639.7       639.9       641.0       641.7       641.2       640.5    
        639.6       638.5       637.4       636.9       634.1       630.6       629.6       627.0       624.2       623.2    
        622.6       621.4       620.1       619.3       617.3       617.3       616.8       616.8       615.9       613.5    
        613.5       611.0       609.2       608.2       606.7       606.7       602.3       592.5       590.5       590.5    
        592.7       604.8       621.0       638.3       651.7       652.9       654.0       656.2       660.1       662.3    
        666.2       668.2       669.3       666.9       662.8       656.2       652.9       649.7       648.7       647.2    
        650.8       645.2       646.2       645.9       675.7    
  11    675.7       600.4       597.1       595.7       592.0       580.9       586.3       594.5       598.3       598.3    
        607.1       619.7       616.2       614.0       613.3       611.8       610.4       606.8       605.6       604.3    
        603.7       603.0       599.7       599.9       600.6       600.4       600.9       602.1       603.1       603.6    
        603.9       604.8       607.2       609.1       609.7       612.0       616.6       619.0       623.4       623.8    
        624.4       626.9       628.8       629.3       629.6       631.3       633.1       633.2       633.3       633.4    
        633.9       635.2       636.7       637.4       637.7       637.9       638.2       638.5       638.7       639.0    
        639.2       639.4       639.6       640.6       641.9       642.9       643.1       643.2       643.4       643.8    
        643.9       644.1       642.4       636.8       635.4       633.1       630.1       629.6       628.7       627.4    
        626.7       626.5       625.6       624.4       623.3       623.3       622.4       620.3       616.8       611.4    
        607.2       602.3       597.2       593.2       588.7       587.0       584.1       581.3       586.0       596.7    
        606.9       619.8       633.3       648.5       656.2       655.8       654.5       653.1       653.1       654.7    
        656.1       657.3       659.4       660.9       660.6       658.9       659.4       658.9       656.0       652.8    
        649.2       637.6       635.8       638.8       675.7    
  12    675.7       591.9       601.6       605.0       599.6       585.1       582.4       578.0       580.7       586.1    
        591.8       603.4       608.5       613.3       614.3       621.3       623.3       622.8       621.0       617.3    
        616.8       616.3       614.1       611.1       607.1       607.0       607.0       607.4       609.0       612.0    
        612.9       612.1       613.0       611.6       611.7       613.6       618.3       623.0       622.8       622.4    
        621.9       621.3       620.7       620.4       620.2       620.1       620.1       620.2       620.4       620.7    
        621.5       622.1       622.5       623.0       623.5       624.0       624.5       625.1       625.5       625.8    
        626.2       626.5       626.6       626.6       626.7       626.7       626.9       627.2       627.3       627.5    
        627.6       626.3       625.4       625.2       623.6       623.0       622.2       620.7       620.1       619.6    
        618.5       617.5       617.1       617.2       616.8       616.8       615.7       613.5       609.1       605.6    
        600.3       590.8       582.5       578.6       575.6       574.1       574.1       574.1       588.5       610.2    
        634.8       646.5       656.6       662.5       662.7       662.7       662.7       662.4       659.4       657.4    
        656.2       654.5       652.9       654.8       653.1       656.0       656.2       656.2       659.4       659.1    
        654.2       643.0       633.5       623.2       675.7    
  13    675.7       575.9       586.6       597.0       606.9       593.9       590.6       581.5       580.7       580.7    
        578.2       587.2       596.0       600.6       603.3       606.9       608.4       611.6       613.4       613.7    
        614.6       615.5       615.6       612.5       610.6       611.8       613.0       613.5       622.9       627.8    
        629.2       633.8       633.3       633.1       632.7       634.1       635.4       634.9       634.3       633.7    
        633.4       633.2       632.3       627.7       626.3       622.3       620.1       620.1       620.1       620.1    
        620.1       620.1       620.1       620.1       620.1       620.1       620.1       620.1       620.1       620.1    
        620.1       620.1       620.1       620.1       620.1       620.1       619.8       619.1       619.0       618.7    
        617.1       616.6       616.7       616.8       616.4       614.7       613.6       613.5       613.5       613.5    
        613.5       613.3       612.8       612.5       610.9       610.9       607.0       605.2       603.2       594.7    
        585.9       580.0       576.3       574.5       577.4       576.9       577.5       585.1       608.6       629.1    
        640.1       648.4       657.1       660.9       663.9       667.7       669.2       668.8       667.0       666.0    
        664.9       662.9       661.8       659.5       657.7       655.9       652.9       652.9       655.1       655.0    
        652.1       649.6       642.9       627.0       675.7    
  14    675.7       569.9       569.6       584.2       592.7       592.5       591.6       586.8       584.0       584.8    
        586.8       591.0       595.7       597.1       594.1       595.8       597.0       597.5       600.4       602.9    
        603.7       601.2       601.6       602.7       603.5       607.0       608.2       614.0       623.7       628.6    
        633.2       637.3       638.1       641.0       642.4       642.8       643.0       643.0       642.8       642.3    
        641.8       640.8       634.4       632.3       626.0       623.3       621.7       620.2       619.7       618.4    
        617.5       617.6       617.6       617.3       617.0       616.8       616.8       616.8       616.8       616.8    
        616.8       616.8       616.8       616.8       616.8       616.8       616.8       616.7       614.3       611.3    
        611.0       609.5       608.7       608.5       606.8       606.5       606.8       606.9       606.9       605.7    
        603.5       601.5       600.7       600.5       598.0       598.0       596.4       594.3       589.2       584.8    
        577.3       574.2       576.5       579.7       578.8       579.1       586.1       605.2       621.6       634.5    
        639.1       643.7       645.1       648.8       649.6       650.6       653.5       655.9       656.9       660.4    
        662.7       665.6       669.2       667.6       662.6       659.7       657.7       652.9       652.9       646.6    
        644.8       644.4       645.5       633.1       675.7    
  15    675.7       580.7       576.8       578.9       581.8       583.1       578.5       580.8       583.8       588.8    
        593.8       597.0       600.4       601.5       600.4       599.4       597.7       597.1       596.4       595.1    
        594.1       593.9       594.2       595.1       597.7       602.5       606.5       613.4       615.7       623.0    
        629.8       630.1       630.6       631.3       632.0       632.6       632.9       634.5       636.5       636.6    
        636.8       630.4       627.7       622.1       620.1       619.8       619.8       619.2       617.6       616.8    
        616.8       616.8       616.8       616.8       616.8       616.8       616.8       616.8       616.7       616.2    
        615.9       615.9       615.9       615.3       614.2       613.6       612.8       609.8       607.2       606.5    
        604.8       604.2       603.2       600.8       600.3       599.1       598.6       598.7       596.8       594.4    
        593.5       593.1       591.3       588.8       586.6       586.6       584.6       582.2       579.0       574.7    
        574.1       577.2       584.8       590.0       593.9       601.7       610.5       625.0       638.8       640.5    
        639.8       639.6       638.7       638.1       639.8       639.8       641.7       645.0       646.4       648.6    
        652.0       650.6       658.7       660.9       662.6       664.9       662.3       654.3       652.9       646.3    
        639.8       639.8       635.1       630.5       675.7    
  16    675.7       590.5       583.7       583.1       579.5       577.4       566.9       570.9       573.9       583.0    
        593.9       599.5       606.8       604.7       603.7       603.7       600.8       600.4       600.4       600.4    
        600.4       600.4       600.0       599.0       601.0       603.8       610.1       612.9       614.1       619.2    
        623.4       623.6       624.2       624.8       625.5       626.1       626.4       626.6       626.7       626.8    
        625.4       623.3       619.3       616.8       616.8       616.8       616.8       616.7       616.7       615.7    
        614.3       613.5       613.5       613.5       613.5       613.5       613.5       613.0       612.4       612.2    
        612.3       611.9       610.8       610.0       609.8       608.5       605.7       603.7       603.1       601.2    
        600.3       598.2       595.2       594.9       593.6       592.7       591.6       587.0       584.0       583.5    
        581.9       579.6       577.9       577.4       574.8       574.8       574.2       573.0       573.5       573.3    
        574.1       585.8       596.9       606.2       612.9       621.0       633.1       644.5       651.5       650.2    
        649.6       646.8       645.2       644.1       643.2       643.0       642.0       640.4       639.8       639.8    
        637.1       641.0       645.8       648.0       652.8       654.2       658.0       652.9       652.9       646.3    
        643.0       636.2       626.3       620.0       675.7    
  17    675.7       591.1       589.4       587.3       585.0       578.1       561.2       561.6       565.5       579.4    
        589.9       593.7       598.0       600.1       604.0       605.8       606.9       606.5       605.1       604.0    
        603.7       603.2       602.4       604.6       607.7       614.4       619.5       622.2       623.5       626.2    
        629.0       629.0       628.1       627.5       626.9       626.4       623.9       623.4       623.4       622.8    
        620.2       618.7       616.1       615.4       613.7       613.5       613.5       613.4       612.2       611.0    
        610.9       611.1       611.3       611.6       611.8       611.9       611.4       610.6       610.2       609.9    
        608.7       607.4       606.9       606.3       604.2       601.7       600.5       599.9       598.0       597.1    
        595.2       592.5       592.1       589.2       586.7       585.2       580.1       577.4       575.6       570.9    
        566.5       564.6       564.4       563.5       562.7       562.7       561.4       561.8       563.0       566.0    
        570.4       581.8       595.7       610.2       624.2       636.2       648.0       652.9       656.2       656.2    
        656.0       655.1       654.0       653.2       652.8       650.2       647.5       647.9       645.9       644.1    
        639.7       636.4       633.2       637.0       640.0       642.6       646.2       641.5       647.1       649.6    
        643.0       634.5       623.4       613.6       675.7    
  18    675.7       589.7       586.9       590.5       590.6       578.2       564.1       561.0       563.9       574.2    
        586.4       587.5       592.6       594.0       595.9       597.1       598.4       602.2       603.6       603.8    
        604.7       605.8       607.7       611.4       616.9       624.0       630.3       630.0       633.0       632.2    
        633.2       633.2       630.9       629.9       629.9       628.0       626.6       624.6       623.2       618.7    
        616.6       614.1       613.5       613.5       613.5       613.5       613.5       612.3       610.5       610.2    
        610.0       609.8       609.8       609.9       609.4       608.3       607.2       606.9       606.3       605.1    
        604.0       603.6       602.6       600.4       598.6       598.2       597.6       595.1       593.8       591.9    
        587.8       586.9       584.0       581.0       578.8       571.9       568.3       565.8       558.7       554.1    
        553.7       553.6       552.9       552.3       552.2       552.2       550.9       553.0       554.8       558.3    
        566.8       577.4       589.7       601.9       613.9       624.7       634.4       642.6       648.8       653.9    
        656.3       658.6       659.4       659.3       658.4       657.0       656.2       655.7       654.0       652.9    
        648.3       641.0       638.9       636.6       634.8       630.4       634.0       634.6       640.8       643.9    
        645.4       633.3       626.1       612.1       675.7    
  19    675.7       587.3       581.2       585.2       592.1       580.6       565.7       564.2       564.3       574.8    
        584.0       583.4       584.3       586.5       587.4       591.4       593.6       594.0       596.0       598.8    
        600.2       600.5       603.6       609.7       618.8       626.6       633.4       636.5       636.7       636.6    
        636.4       636.1       635.4       634.6       633.0       627.3       625.7       623.5       621.2       616.9    
        615.3       613.5       613.5       613.5       613.5       613.5       612.6       610.8       610.2       609.1    
        607.7       607.0       606.7       605.9       604.7       603.8       603.5       602.4       600.5       599.5    
        599.4       598.2       595.8       594.0       593.6       592.9       591.5       590.6       588.7       583.3    
        581.2       579.1       575.8       575.0       568.4       563.6       561.3       553.6       548.4       547.6    
        545.9       543.6       541.8       541.5       542.0       542.0       542.8       544.0       547.6       551.2    
        560.7       575.6       587.6       597.8       608.0       616.5       621.1       627.0       638.1       646.4    
        649.6       650.0       651.1       654.4       656.0       656.4       658.4       662.3       662.6       659.6    
        653.8       645.5       643.2       641.9       639.8       630.6       629.9       624.1       630.1       633.3    
        638.9       633.2       627.0       616.7       675.7    
  20    675.7       583.7       577.4       580.7       587.4       579.7       564.8       564.3       566.1       576.3    
        584.0       580.7       580.8       581.4       583.4       584.2       586.7       589.7       590.6       591.2    
        592.4       593.3       600.3       603.9       611.4       619.7       631.0       633.3       634.4       636.7    
        638.7       639.6       639.7       639.5       633.8       629.7       623.9       622.1       617.9       616.3    
        614.0       613.5       613.5       613.5       613.5       613.2       611.2       610.2       609.2       607.4    
        606.7       606.1       604.1       602.0       600.6       600.2       598.4       595.8       594.4       594.1    
        592.5       590.1       588.7       588.6       588.1       586.9       586.3       585.6       580.8       577.3    
        575.9       572.2       570.8       566.8       561.7       560.2       554.8       550.3       549.5       548.2    
        546.6       545.7       545.4       545.1       544.8       544.8       544.7       544.9       552.6       556.6    
        560.5       572.5       584.0       593.1       600.0       604.9       610.0       619.7       628.3       640.0    
        642.2       646.1       646.4       647.1       648.3       649.4       652.8       655.1       658.5       659.6    
        658.0       652.6       648.0       646.3       642.4       635.8       632.7       620.3       623.0       626.2    
        630.4       626.6       629.4       617.8       675.7    
  21    675.7       582.4       574.9       577.2       583.9       575.2       563.9       564.3       569.3       577.2    
        582.7       580.7       584.0       580.7       580.7       580.7       581.0       582.5       583.7       584.1    
        585.4       589.2       593.5       598.0       605.0       614.5       624.1       626.4       626.8       627.9    
        629.7       631.5       632.7       632.5       624.4       621.8       617.6       616.5       613.6       613.1    
        612.9       613.4       613.5       613.5       613.5       612.1       610.3       609.4       605.7       603.8    
        603.0       600.3       597.7       596.7       596.6       595.9       594.7       593.9       593.4       590.7    
        587.0       584.5       584.1       583.4       582.2       581.6       581.3       577.6       573.2       572.6    
        569.4       567.2       565.9       562.3       560.8       556.8       552.1       551.2       551.1       550.7    
        550.3       550.1       549.9       549.6       549.3       549.3       551.4       554.4       561.0       568.8    
        575.8       583.2       589.9       597.8       603.6       603.7       605.8       611.0       626.6       636.4    
        637.8       639.0       639.7       639.9       641.1       644.0       646.2       646.7       651.4       652.8    
        653.3       649.3       646.9       646.5       645.1       642.9       635.1       627.5       621.6       620.1    
        625.4       623.0       623.4       622.4       675.7    
  22    675.7       583.3       578.7       574.2       580.3       574.3       561.0       562.5       570.6       577.5    
        580.7       584.0       584.0       584.0       583.0       581.1       580.7       580.7       580.7       580.7    
        581.0       584.0       588.8       593.2       599.3       610.1       616.8       619.1       620.0       620.5    
        621.9       623.7       625.3       624.1       620.0       615.8       613.6       611.7       611.1       609.2    
        609.2       609.7       610.1       610.2       609.3       605.3       604.1       601.4       599.1       599.1    
        596.8       593.7       592.6       592.6       591.9       590.6       589.8       589.7       587.4       583.8    
        581.2       580.6       579.9       578.7       577.8       577.5       574.8       570.1       568.7       566.7    
        563.5       563.0       560.2       557.8       557.1       555.3       554.5       554.4       554.3       554.2    
        554.1       554.0       553.8       553.5       555.2       555.2       556.6       564.2       569.1       577.3    
        590.1       595.8       600.5       606.2       610.5       610.2       612.6       616.3       631.1       633.2    
        633.9       635.1       636.1       636.5       636.7       637.9       642.2       643.1       645.1       649.0    
        646.7       645.5       643.2       648.1       648.9       646.3       638.1       631.5       625.5       619.1    
        619.6       618.2       619.4       620.6       675.7    
  23    675.7       583.9       582.0       575.7       577.0       574.1       561.0       561.4       567.8       577.8    
        580.7       584.0       585.7       584.0       584.0       584.0       583.9       582.9       581.5       580.8    
        582.7       583.8       586.4       589.8       596.5       607.4       611.8       613.0       613.5       614.7    
        617.6       618.5       619.3       615.5       613.0       610.6       609.6       607.6       607.0       605.3    
        605.8       606.3       606.7       606.9       604.1       600.6       599.2       595.5       594.5       593.1    
        590.2       589.0       588.9       587.7       585.5       583.7       583.4       582.1       579.7       577.8    
        577.3       576.0       573.6       571.6       571.1       570.0       567.1       565.2       564.5       561.0    
        559.6       559.0       557.4       557.3       557.6       557.7       557.7       557.7       557.7       557.5    
        557.5       557.3       557.1       556.9       561.7       561.7       563.7       574.4       579.8       587.9    
        599.8       604.7       610.8       614.9       617.1       616.8       618.0       623.6       633.5       636.5    
        635.9       634.7       633.7       633.2       633.5       634.5       636.0       636.5       638.5       642.5    
        643.2       642.0       639.9       642.3       644.3       649.5       643.8       634.9       628.9       622.4    
        616.8       612.5       611.8       614.4       675.7    
  24    675.7       585.7       585.9       581.0       574.1       573.5       560.4       561.0       567.6       575.5    
        579.1       584.2       587.3       587.3       586.0       584.0       584.0       584.0       584.0       584.0    
        584.0       585.8       587.1       590.4       593.9       604.5       607.7       609.7       610.2       610.7    
        612.5       614.5       615.6       610.8       609.0       607.1       605.5       604.5       604.2       603.6    
        603.1       603.3       603.5       602.9       599.0       597.2       594.2       591.5       591.0       588.1    
        586.1       585.9       584.9       582.7       580.9       580.2       579.0       575.4       572.1       570.8    
        569.9       567.7       565.5       564.7       563.8       560.6       557.5       557.5       556.7       555.1    
        555.4       554.8       554.1       554.3       554.4       554.5       555.7       557.2       557.7       557.7    
        557.7       557.7       557.8       558.7       565.4       565.4       571.1       581.1       590.1       597.7    
        609.2       611.4       618.7       622.6       623.4       623.2       624.2       628.8       636.5       636.5    
        636.5       636.5       636.5       636.5       636.0       634.7       633.5       633.3       634.6       639.0    
        637.3       638.4       635.1       638.9       640.7       643.1       645.4       637.8       633.7       625.4    
        618.4       610.1       606.9       610.6       675.7    
  25    675.7       587.8       590.9       583.2       574.1       570.9       557.7       560.2       565.3       570.9    
        576.5       581.1       586.7       587.3       587.3       584.0       584.0       584.0       584.0       584.0    
        586.1       587.3       587.3       590.6       594.2       602.0       603.4       603.7       604.1       605.7    
        607.8       609.4       609.6       607.0       607.0       606.8       604.3       603.6       602.8       602.7    
        600.5       599.5       597.2       596.3       594.5       593.3       588.1       587.1       586.2       583.9    
        583.2       582.4       580.3       578.2       577.2       576.4       572.3       567.3       564.5       563.8    
        561.0       557.6       556.3       556.3       554.7       552.0       551.0       551.2       550.2       549.8    
        550.5       550.9       551.1       551.2       551.2       551.8       553.6       555.0       555.3       555.5    
        555.8       556.1       556.8       560.3       567.8       567.8       578.3       584.9       595.9       605.1    
        613.4       616.6       623.9       626.6       629.3       629.1       629.6       633.7       636.5       636.5    
        637.9       636.9       636.5       636.5       636.5       636.5       636.5       636.0       634.3       633.2    
        634.3       633.1       631.0       633.1       636.7       640.0       639.7       639.3       637.5       627.3    
        620.8       608.6       600.8       605.4       675.7    
  26    675.7       589.4       593.8       582.4       574.1       570.9       557.7       557.7       563.4       568.2    
        573.6       577.8       584.0       585.3       587.3       587.0       585.4       584.1       584.0       584.0    
        587.3       587.3       587.5       590.8       594.8       600.1       602.7       600.9       601.6       602.6    
        603.4       603.7       602.7       601.5       602.6       603.6       602.8       602.4       600.3       599.2    
        597.2       595.6       594.4       591.6       590.2       588.3       583.6       583.1       581.8       580.7    
        580.0       576.9       573.5       571.3       570.8       568.1       563.0       559.4       558.9       557.2    
        553.7       551.2       551.1       550.5       548.4       546.6       546.6       546.1       544.7       544.5    
        544.6       544.7       544.9       545.3       546.1       548.4       551.9       552.9       553.5       554.2    
        554.4       554.7       557.1       562.2       569.2       569.2       578.9       584.7       597.0       608.2    
        614.9       620.7       627.0       632.9       634.9       633.3       633.7       636.7       639.4       638.1    
        639.8       639.8       639.5       638.6       637.3       636.5       636.5       636.5       636.5       636.1    
        633.1       628.9       627.7       630.1       632.8       635.8       635.4       636.4       639.6       628.0    
        623.4       610.2       598.1       600.8       675.7    
  27    675.7       587.9       596.3       583.6       574.1       570.9       557.7       557.7       561.0       566.4    
        568.2       576.1       584.0       584.7       587.3       587.3       587.3       587.1       585.9       584.7    
        587.3       587.9       589.9       591.3       595.2       599.4       600.8       598.8       599.8       600.3    
        600.5       601.0       599.7       599.2       599.8       600.1       600.3       598.8       597.3       595.6    
        594.7       592.9       592.2       588.0       586.7       583.3       580.7       579.8       578.2       577.6    
        575.2       570.2       566.7       566.2       565.4       562.1       557.8       556.4       555.5       551.8    
        547.9       546.6       546.5       544.8       542.5       541.3       540.9       539.5       538.5       539.3    
        541.3       542.4       542.7       543.2       543.9       547.8       550.6       551.3       552.7       554.0    
        554.5       555.6       558.6       562.5       568.6       568.6       578.1       586.3       596.4       608.7    
        614.1       620.2       627.2       631.4       635.4       636.2       636.5       639.3       639.8       639.8    
        639.8       639.8       639.8       639.8       639.8       639.4       638.1       636.7       636.5       636.5    
        633.2       630.3       623.5       626.1       630.0       632.6       631.8       630.8       636.7       630.4    
        623.4       612.5       597.7       597.1       675.7    
  28    675.7       588.1       595.8       584.4       574.1       570.7       557.7       557.7       558.4       564.3    
        566.3       573.8       583.0       584.0       585.6       587.2       587.3       587.3       587.3       587.6    
        590.0       589.5       590.5       592.0       593.9       597.8       599.4       597.0       597.2       597.7    
        598.6       598.6       597.5       597.1       597.2       595.3       595.1       595.2       595.4       593.5    
        593.0       590.8       589.0       584.6       583.2       579.2       578.0       575.8       574.0       573.9    
        570.5       565.7       563.8       563.3       561.2       557.5       554.7       553.9       549.8       543.7    
        539.1       538.4       537.8       536.7       536.1       536.3       536.5       536.4       536.5       537.7    
        539.6       540.4       541.1       541.3       542.7       546.3       548.0       548.9       550.6       551.8    
        552.5       555.3       560.0       563.7       570.9       570.9       577.5       588.1       595.5       606.9    
        615.0       622.3       627.8       630.5       633.2       633.4       634.4       638.9       639.7       639.8    
        641.8       640.5       639.9       639.8       639.8       639.8       639.8       639.5       638.0       636.6    
        634.9       631.0       626.1       623.6       627.9       630.0       629.6       629.0       633.4       630.1    
        624.6       614.0       599.8       592.7       675.7    
  29    675.7       586.9       590.7       584.2       574.1       568.3       557.7       557.7       557.7       562.1    
        564.3       571.3       580.7       582.4       583.9       584.6       586.4       587.2       587.3       588.1    
        590.5       590.5       590.5       591.1       593.6       596.7       597.1       594.4       595.5       596.6    
        596.7       593.9       594.2       594.7       595.3       593.4       593.3       593.6       593.3       590.9    
        589.9       587.9       586.6       584.1       582.2       577.9       576.8       573.1       570.9       569.3    
        565.2       561.9       561.0       559.2       555.4       550.9       549.3       547.9       542.6       536.7    
        534.9       535.0       534.5       533.7       533.4       533.9       534.3       534.5       534.7       534.8    
        534.9       535.7       537.8       538.9       541.5       545.6       546.7       548.7       550.6       551.2    
        552.7       557.0       561.5       564.2       573.3       573.3       578.0       588.8       594.9       605.7    
        615.5       623.9       628.4       630.0       631.4       633.2       633.6       636.5       637.3       638.8    
        642.9       643.0       642.4       641.3       640.2       639.8       639.8       639.8       639.8       639.1    
        634.9       633.0       627.3       626.2       626.5       626.8       624.5       626.7       629.9       629.9    
        626.6       616.5       601.2       590.6       675.7    
  30    675.7       585.4       589.4       584.0       574.1       567.6       558.2       557.7       557.7       560.9    
        562.5       567.6       579.2       580.7       581.8       583.7       584.1       585.2       586.7       588.6    
        590.5       590.5       590.5       590.5       593.6       594.5       595.5       593.4       593.8       594.1    
        594.2       592.4       592.5       593.5       593.3       590.9       590.8       591.2       590.8       589.1    
        588.7       587.3       585.3       583.9       581.0       577.6       576.0       572.1       570.8       568.2    
        563.4       561.2       560.5       557.7       553.1       549.3       548.0       544.2       537.8       532.8    
        531.5       530.8       529.7       528.7       528.7       528.9       529.3       530.0       530.9       532.7    
        533.5       534.8       536.7       537.8       541.5       544.4       545.6       548.6       550.8       551.4    
        553.8       557.7       561.1       562.3       574.0       574.0       578.1       589.3       596.1       604.2    
        613.6       623.1       627.6       629.7       631.0       633.2       633.3       635.1       636.2       637.0    
        640.5       641.8       642.7       643.0       642.7       641.5       640.1       639.8       639.8       639.8    
        636.3       634.0       629.7       627.2       624.1       623.4       622.8       623.8       627.9       627.7    
        626.6       616.6       602.1       590.5       675.7    
  31    675.7       584.0       587.3       583.9       574.1       567.6       559.1       557.7       557.7       558.7    
        561.0       566.2       577.5       579.0       580.6       581.2       583.0       583.9       584.3       587.4    
        590.0       590.5       590.5       590.5       592.5       593.5       593.4       590.1       590.4       592.6    
        592.5       590.1       588.0       589.0       590.0       589.5       589.8       589.9       589.0       587.3    
        587.3       587.1       583.1       581.9       579.4       577.4       575.0       571.4       570.3       566.5    
        562.4       561.0       559.6       556.6       553.2       551.0       549.7       545.1       539.0       535.8    
        534.9       533.8       532.3       531.2       530.5       529.8       529.3       528.9       529.4       531.0    
        531.5       531.7       532.3       534.0       539.8       542.8       544.7       548.5       550.2       551.5    
        555.0       558.7       560.8       561.8       573.2       573.2       577.7       587.6       596.1       603.4    
        612.8       622.9       626.1       629.0       630.4       632.0       632.9       633.2       633.9       635.8    
        639.4       639.8       640.3       641.4       642.5       643.0       642.6       641.0       639.8       639.8    
        637.0       636.2       630.6       629.6       623.6       622.8       620.5       620.1       626.5       626.3    
        626.6       616.3       603.4       590.6       675.7    
  32    675.7       580.2       584.8       583.1       574.1       567.6       558.6       557.7       557.7       557.9    
        559.1       564.9       577.4       577.4       578.4       580.3       580.8       581.9       583.4       586.4    
        587.5       588.4       589.4       590.3       590.6       591.1       591.5       588.5       587.3       587.6    
        587.3       587.1       586.5       587.1       587.2       587.3       585.7       585.2       585.4       585.6    
        586.2       586.2       581.6       580.3       578.2       577.2       573.8       571.0       569.9       566.0    
        563.1       562.3       559.8       555.9       552.9       551.8       549.3       544.0       539.6       538.2    
        538.1       538.0       538.0       537.8       538.0       538.9       539.1       538.2       538.5       538.4    
        537.0       535.7       534.7       535.6       540.4       541.7       544.2       547.1       548.1       550.9    
        555.8       559.8       561.0       562.5       572.4       572.4       578.7       586.8       597.0       603.2    
        610.9       623.2       626.5       628.8       629.8       630.0       630.4       631.7       632.9       633.3    
        634.5       637.0       639.3       639.8       640.1       641.2       642.6       643.0       641.9       640.1    
        639.5       636.5       633.1       630.5       626.0       621.6       619.3       618.5       622.2       621.9    
        622.9       616.7       604.3       592.8       675.7    
  33    675.7       577.7       580.7       580.1       574.1       567.6       558.2       557.6       557.7       560.5    
        557.8       563.5       577.4       577.4       577.4       577.7       580.7       580.7       580.8       584.6    
        586.2       587.0       587.3       587.7       588.7       589.9       589.1       585.2       585.0       586.2    
        584.6       583.9       584.1       584.5       585.0       585.5       583.7       583.4       583.8       583.9    
        584.0       583.3       580.8       579.2       575.9       575.5       572.3       570.8       568.9       565.7    
        564.3       562.9       559.8       556.6       554.6       553.9       550.8       546.4       543.7       543.2    
        543.4       543.6       543.2       542.7       542.9       543.8       544.1       543.4       544.3       545.0    
        545.5       547.1       547.4       551.0       554.3       553.8       555.6       556.0       555.2       557.2    
        560.8       562.7       562.8       564.8       571.0       571.0       579.0       584.8       596.4       603.7    
        611.7       623.4       626.6       626.7       627.2       628.1       629.3       629.9       630.2       631.5    
        632.7       633.2       636.7       637.6       638.8       639.7       640.0       641.3       642.8       642.7    
        640.8       636.8       635.7       633.1       627.0       620.9       616.4       616.4       619.8       619.8    
        619.9       618.4       606.3       592.7       675.7    
  34    675.7       574.6       578.4       578.4       572.9       566.8       557.8       554.9       557.7       561.0    
        560.6       563.7       574.8       577.0       577.4       577.4       580.6       580.7       580.7       583.4    
        584.0       584.3       585.1       586.2       587.1       587.3       585.8       583.0       583.6       584.0    
        581.3       579.7       580.5       581.9       583.1       583.2       581.0       580.8       580.9       581.3    
        581.8       581.7       580.7       577.6       574.2       573.2       571.3       570.5       567.5       564.7    
        564.1       562.3       559.3       557.1       556.3       555.0       551.1       547.6       546.5       546.5    
        547.4       548.3       548.5       549.1       551.3       553.6       554.4       556.0       558.7       558.3    
        558.5       558.0       557.0       560.5       562.1       561.8       564.3       565.1       565.9       568.3    
        570.2       570.8       572.0       575.4       579.3       579.3       586.3       588.7       597.7       606.1    
        614.2       623.4       624.0       624.9       625.8       626.5       626.7       627.4       628.8       629.8    
        630.0       630.8       633.7       635.7       636.5       636.9       638.3       639.6       640.0       641.8    
        643.0       639.2       639.8       634.9       628.3       620.8       616.3       613.3       614.5       617.0    
        614.6       613.7       607.6       592.0       675.7    
  35    675.7       574.1       571.3       574.7       568.6       564.4       557.6       554.5       559.8       563.0    
        561.0       569.1       574.1       574.1       574.2       575.0       576.7       577.4       578.0       579.3    
        580.4       580.7       580.9       581.8       583.1       583.9       581.0       580.7       580.7       580.7    
        577.4       577.4       575.5       575.3       576.0       576.7       577.0       577.3       577.4       577.5    
        577.7       578.1       578.2       574.9       574.0       571.9       570.8       568.6       565.3       564.3    
        563.4       562.0       561.0       560.7       560.0       558.5       556.5       555.6       556.7       559.9    
        562.3       562.3       562.5       565.1       568.1       568.9       570.1       574.5       577.4       578.8    
        582.0       581.9       584.9       587.4       586.2       587.4       587.5       586.3       587.5       588.9    
        588.8       589.6       592.5       595.8       599.2       599.2       602.2       606.2       608.4       616.4    
        623.4       626.7       626.6       625.8       623.4       623.4       626.5       626.6       625.0       624.9    
        626.5       626.8       627.5       628.6       629.7       630.0       631.5       634.7       636.5       637.6    
        642.4       644.8       643.6       639.5       630.4       623.4       619.5       613.5       607.0       613.5    
        610.2       604.6       608.4       590.9       675.7    
  36    675.7       574.1       571.3       574.7       568.6       564.4       557.6       554.5       559.8       563.0    
        561.0       569.1       574.1       574.1       574.2       575.0       576.7       577.4       578.0       579.3    
        580.4       580.7       580.9       581.8       583.1       583.9       581.0       580.7       580.7       580.7    
        577.4       577.4       575.5       575.3       576.0       576.7       577.0       577.3       577.4       577.5    
        577.7       578.1       578.2       574.9       574.0       571.9       570.8       568.6       565.3       564.3    
        563.4       562.0       561.0       560.7       560.0       558.5       556.5       555.6       556.7       559.9    
        562.3       562.3       562.5       565.1       568.1       568.9       570.1       574.5       577.4       578.8    
        582.0       581.9       584.9       587.4       586.2       587.4       587.5       586.3       587.5       588.9    
        588.8       589.6       592.5       595.8       599.2       599.2       602.2       606.2       608.4       616.4    
        623.4       626.7       626.6       625.8       623.4       623.4       626.5       626.6       625.0       624.9    
        626.5       626.8       627.5       628.6       629.7       630.0       631.5       634.7       636.5       637.6    
        642.4       644.8       643.6       639.5       630.4       623.4       619.5       613.5       607.0       613.5    
        610.2       604.6       608.4       590.9       675.7    
  37    675.7       574.1       570.5       574.1       567.6       564.3       557.4       554.5       560.5       564.3    
        561.9       570.1       574.1       574.1       574.1       574.2       574.8       576.4       577.3       577.6    
        578.4       579.6       580.4       580.7       581.1       582.2       580.8       580.7       580.7       580.4    
        576.1       576.8       574.8       574.2       574.3       574.6       575.1       575.6       576.2       576.8    
        577.2       577.4       576.7       574.4       573.7       571.6       570.8       568.7       566.0       565.3    
        563.8       562.2       561.5       561.2       560.3       559.1       558.0       558.2       561.4       566.2    
        569.5       569.8       571.7       574.9       576.7       576.4       578.5       582.9       583.2       583.3    
        585.6       585.7       590.0       593.7       595.0       598.2       598.5       599.2       600.9       600.7    
        599.6       599.6       600.8       601.8       602.7       602.7       604.9       610.3       614.6       622.3    
        629.4       628.8       627.2       626.1       623.4       623.4       624.8       626.2       623.9       621.1    
        623.4       625.8       626.6       626.8       627.7       629.0       629.9       630.8       635.4       636.5    
        638.4       645.2       645.5       640.1       630.1       623.4       620.1       613.6       608.1       611.0    
        608.4       603.2       606.5       590.7       675.7    
  38    675.7       574.1       568.5       572.5       566.2       562.9       557.2       554.5       560.7       564.3    
        563.8       570.5       574.1       574.1       574.1       574.1       574.1       574.4       575.7       577.0    
        577.4       577.6       578.5       579.7       580.5       580.8       580.7       579.3       580.3       579.8    
        574.3       574.9       574.3       573.7       573.7       574.0       574.1       574.2       574.4       574.8    
        575.3       575.9       575.4       573.7       573.2       571.2       570.6       568.9       567.5       566.9    
        565.4       563.9       563.4       563.3       563.2       562.7       561.9       562.0       565.3       570.0    
        572.1       572.4       575.0       578.6       580.6       581.7       586.3       591.8       592.5       594.7    
        595.7       595.4       599.2       600.0       599.7       602.0       602.1       603.4       605.9       607.0    
        607.2       608.0       609.0       609.2       612.0       612.0       612.2       616.2       617.7       624.0    
        632.0       630.8       629.3       627.5       624.1       623.5       623.4       624.1       622.4       619.9    
        620.2       621.6       624.0       626.0       626.6       627.1       628.5       629.7       633.4       635.3    
        636.5       642.0       646.3       641.5       630.0       623.7       620.1       613.8       609.9       607.5    
        604.5       599.7       605.0       590.6       675.7    
  39    675.7       574.1       567.6       570.9       564.2       561.2       556.7       554.5       561.0       564.3    
        564.3       570.8       574.1       574.1       574.1       574.1       574.1       574.1       574.2       575.0    
        576.3       577.2       577.4       577.7       578.7       579.9       580.6       577.6       578.3       578.4    
        574.1       574.1       574.1       572.4       571.8       572.4       572.8       572.8       573.6       574.0    
        574.1       574.3       572.9       571.7       570.9       569.4       569.4       568.3       567.6       567.0    
        565.5       564.5       564.4       565.0       566.0       566.9       567.1       568.9       573.4       577.3    
        578.0       578.9       582.5       585.7       586.1       586.6       591.1       595.4       595.6       598.4    
        600.5       602.7       607.9       609.0       611.0       612.4       611.5       612.7       613.8       613.1    
        612.2       612.1       612.4       612.2       615.4       615.4       617.3       622.1       624.3       627.8    
        634.2       631.0       630.0       628.5       626.2       625.3       624.1       623.4       620.5       618.2    
        619.5       620.0       620.4       621.9       624.5       626.3       626.8       628.1       632.7       633.4    
        635.4       639.6       643.6       643.0       630.6       625.4       620.1       613.8       610.2       606.9    
        603.5       597.1       600.5       590.6       675.7    
  40    675.7       574.1       567.6       570.3       563.7       560.6       555.9       554.5       561.0       564.4    
        564.3       570.9       574.1       574.1       574.1       574.1       574.1       574.1       574.1       574.2    
        574.4       575.3       576.4       577.2       577.5       578.1       579.1       577.4       577.4       576.5    
        573.7       572.8       573.5       571.7       570.8       570.9       570.3       569.0       569.8       571.0    
        572.3       573.1       571.9       570.8       569.3       567.8       567.8       567.7       567.6       567.2    
        566.4       565.8       565.7       566.2       567.2       568.0       568.3       571.3       576.4       580.0    
        581.0       583.9       588.7       592.4       593.0       595.5       600.8       603.2       603.8       608.0    
        608.0       608.7       612.5       612.3       614.5       616.8       617.8       620.5       622.2       621.9    
        622.2       622.6       622.2       621.2       622.0       622.0       621.2       624.3       626.6       630.3    
        636.1       632.7       631.4       628.7       626.7       626.6       626.1       624.7       620.4       616.9    
        617.5       618.8       619.8       620.1       620.8       623.2       626.3       626.7       629.0       632.7    
        633.5       638.9       640.1       641.8       632.4       625.8       620.6       615.0       610.2       606.9    
        601.4       596.2       598.6       590.5       675.7    
  41    675.7       574.1       567.6       568.6       563.0       558.9       554.7       554.5       561.1       565.8    
        564.3       570.9       574.1       574.1       574.1       574.1       574.1       574.1       574.1       574.1    
        574.1       574.2       574.6       575.7       576.8       577.4       577.6       576.8       576.6       575.8    
[...]
     1 CALLS TO GCG PACKAGE FOR TRANSPORT TIME STEP  55 IN FLOW TIME STEP   1 STRESS PERIOD   1
     3 TOTAL ITERATIONS
     1 CALLS TO GCG PACKAGE FOR TRANSPORT TIME STEP  55 IN FLOW TIME STEP   1 STRESS PERIOD   1
     2 TOTAL ITERATIONS
     1 CALLS TO GCG PACKAGE FOR TRANSPORT TIME STEP  56 IN FLOW TIME STEP   1 STRESS PERIOD   1
     3 TOTAL ITERATIONS
     1 CALLS TO GCG PACKAGE FOR TRANSPORT TIME STEP  56 IN FLOW TIME STEP   1 STRESS PERIOD   1
     2 TOTAL ITERATIONS
     1 CALLS TO GCG PACKAGE FOR TRANSPORT TIME STEP  57 IN FLOW TIME STEP   1 STRESS PERIOD   1
     3 TOTAL ITERATIONS
     1 CALLS TO GCG PACKAGE FOR TRANSPORT TIME STEP  57 IN FLOW TIME STEP   1 STRESS PERIOD   1
     2 TOTAL ITERATIONS
     1 CALLS TO GCG PACKAGE FOR TRANSPORT TIME STEP  58 IN FLOW TIME STEP   1 STRESS PERIOD   1
     3 TOTAL ITERATIONS
     1 CALLS TO GCG PACKAGE FOR TRANSPORT TIME STEP  58 IN FLOW TIME STEP   1 STRESS PERIOD   1
     2 TOTAL ITERATIONS
     1 CALLS TO GCG PACKAGE FOR TRANSPORT TIME STEP  59 IN FLOW TIME STEP   1 STRESS PERIOD   1
     3 TOTAL ITERATIONS
     1 CALLS TO GCG PACKAGE FOR TRANSPORT TIME STEP  59 IN FLOW TIME STEP   1 STRESS PERIOD   1
     2 TOTAL ITERATIONS
     1 CALLS TO GCG PACKAGE FOR TRANSPORT TIME STEP  60 IN FLOW TIME STEP   1 STRESS PERIOD   1
     1 TOTAL ITERATIONS
     1 CALLS TO GCG PACKAGE FOR TRANSPORT TIME STEP  60 IN FLOW TIME STEP   1 STRESS PERIOD   1
     1 TOTAL ITERATIONS



 >>>>>>>>>>>>>>>>>>>>>>>>>>>>>>>>>>>>>>>>>>>>>>>>>>>>>>>FOR COMPONENT NO. 01<<<<<<<<<<<<<<<<<<<<<<<<<<<<<<<<<<<<<<<<<<<<<<<<<<<<<<<


                                            -------------------------------------------
                                                      TRANSPORT STEP NO.   60
                                            -------------------------------------------

 TOTAL ELAPSED TIME SINCE BEGINNING OF SIMULATION =   3.000000      yr
 .....................................................................

                     CUMMULATIVE MASS BUDGETS AT END OF TRANSPORT STEP   60, TIME STEP    1, STRESS PERIOD    1
                     ------------------------------------------------------------------------------------------

                                                             IN                           OUT
                                                      ----------------             ----------------
                               CONSTANT CONCENTRATION:    0.000000                    0.000000    
                                        CONSTANT HEAD:    0.000000                    0.000000    
                                                WELLS:    0.000000                  -0.8544618E+09
                                             RECHARGE:    0.000000                    0.000000    
                              DECAY OR BIODEGRADATION:    0.000000                    0.000000    
                                MASS STORAGE (SOLUTE):   0.2872196E+09              -0.2636419E+08
                                MASS STORAGE (SORBED):   0.6407615E+09              -0.4692469E+08
                            ---------------------------------------------------------------------------
                                              [TOTAL]:   0.9280166E+09   kg         -0.9281260E+09   kg

                                                          NET (IN - OUT):   -109376.0    
                                                   DISCREPANCY (PERCENT):  -0.1178530E-01



 >>>>>>>>>>>>>>>>>>>>>>>>>>>>>>>>>>>>>>>>>>>>>>>>>>>>>>>FOR COMPONENT NO. 02<<<<<<<<<<<<<<<<<<<<<<<<<<<<<<<<<<<<<<<<<<<<<<<<<<<<<<<


                                            -------------------------------------------
                                                      TRANSPORT STEP NO.   60
                                            -------------------------------------------

 TOTAL ELAPSED TIME SINCE BEGINNING OF SIMULATION =   3.000000      yr
 .....................................................................

                     CUMMULATIVE MASS BUDGETS AT END OF TRANSPORT STEP   60, TIME STEP    1, STRESS PERIOD    1
                     ------------------------------------------------------------------------------------------

                                                             IN                           OUT
                                                      ----------------             ----------------
                               CONSTANT CONCENTRATION:    0.000000                    0.000000    
                                        CONSTANT HEAD:    0.000000                    0.000000    
                                                WELLS:    0.000000                   -133.5129    
                                             RECHARGE:    0.000000                    0.000000    
                              DECAY OR BIODEGRADATION:    0.000000                    0.000000    
                                MASS STORAGE (SOLUTE):   0.1273016E+08              -0.1473746E+08
                                MASS STORAGE (SORBED):   0.6872037E+09              -0.6843238E+09
                            ---------------------------------------------------------------------------
                                              [TOTAL]:   0.6999339E+09   kg         -0.6999585E+09   kg

                                                          NET (IN - OUT):   -24640.00    
                                                   DISCREPANCY (PERCENT):  -0.3520271E-02
     1 CALLS TO GCG PACKAGE FOR TRANSPORT TIME STEP  61 IN FLOW TIME STEP   1 STRESS PERIOD   1
     3 TOTAL ITERATIONS
     1 CALLS TO GCG PACKAGE FOR TRANSPORT TIME STEP  61 IN FLOW TIME STEP   1 STRESS PERIOD   1
     2 TOTAL ITERATIONS
     1 CALLS TO GCG PACKAGE FOR TRANSPORT TIME STEP  62 IN FLOW TIME STEP   1 STRESS PERIOD   1
     3 TOTAL ITERATIONS
     1 CALLS TO GCG PACKAGE FOR TRANSPORT TIME STEP  62 IN FLOW TIME STEP   1 STRESS PERIOD   1
     2 TOTAL ITERATIONS
     1 CALLS TO GCG PACKAGE FOR TRANSPORT TIME STEP  63 IN FLOW TIME STEP   1 STRESS PERIOD   1
     3 TOTAL ITERATIONS
     1 CALLS TO GCG PACKAGE FOR TRANSPORT TIME STEP  63 IN FLOW TIME STEP   1 STRESS PERIOD   1
     2 TOTAL ITERATIONS
     1 CALLS TO GCG PACKAGE FOR TRANSPORT TIME STEP  64 IN FLOW TIME STEP   1 STRESS PERIOD   1
     3 TOTAL ITERATIONS
     1 CALLS TO GCG PACKAGE FOR TRANSPORT TIME STEP  64 IN FLOW TIME STEP   1 STRESS PERIOD   1
     2 TOTAL ITERATIONS
     1 CALLS TO GCG PACKAGE FOR TRANSPORT TIME STEP  65 IN FLOW TIME STEP   1 STRESS PERIOD   1
     3 TOTAL ITERATIONS
     1 CALLS TO GCG PACKAGE FOR TRANSPORT TIME STEP  65 IN FLOW TIME STEP   1 STRESS PERIOD   1
     2 TOTAL ITERATIONS
     1 CALLS TO GCG PACKAGE FOR TRANSPORT TIME STEP  66 IN FLOW TIME STEP   1 STRESS PERIOD   1
     3 TOTAL ITERATIONS
     1 CALLS TO GCG PACKAGE FOR TRANSPORT TIME STEP  66 IN FLOW TIME STEP   1 STRESS PERIOD   1
     2 TOTAL ITERATIONS
     1 CALLS TO GCG PACKAGE FOR TRANSPORT TIME STEP  67 IN FLOW TIME STEP   1 STRESS PERIOD   1
     3 TOTAL ITERATIONS
     1 CALLS TO GCG PACKAGE FOR TRANSPORT TIME STEP  67 IN FLOW TIME STEP   1 STRESS PERIOD   1
     2 TOTAL ITERATIONS
     1 CALLS TO GCG PACKAGE FOR TRANSPORT TIME STEP  68 IN FLOW TIME STEP   1 STRESS PERIOD   1
     3 TOTAL ITERATIONS
     1 CALLS TO GCG PACKAGE FOR TRANSPORT TIME STEP  68 IN FLOW TIME STEP   1 STRESS PERIOD   1
     2 TOTAL ITERATIONS
     1 CALLS TO GCG PACKAGE FOR TRANSPORT TIME STEP  69 IN FLOW TIME STEP   1 STRESS PERIOD   1
     3 TOTAL ITERATIONS
     1 CALLS TO GCG PACKAGE FOR TRANSPORT TIME STEP  69 IN FLOW TIME STEP   1 STRESS PERIOD   1
     2 TOTAL ITERATIONS
     1 CALLS TO GCG PACKAGE FOR TRANSPORT TIME STEP  70 IN FLOW TIME STEP   1 STRESS PERIOD   1
     3 TOTAL ITERATIONS
     1 CALLS TO GCG PACKAGE FOR TRANSPORT TIME STEP  70 IN FLOW TIME STEP   1 STRESS PERIOD   1
     2 TOTAL ITERATIONS
     1 CALLS TO GCG PACKAGE FOR TRANSPORT TIME STEP  71 IN FLOW TIME STEP   1 STRESS PERIOD   1
     1 TOTAL ITERATIONS
     1 CALLS TO GCG PACKAGE FOR TRANSPORT TIME STEP  71 IN FLOW TIME STEP   1 STRESS PERIOD   1
     1 TOTAL ITERATIONS



 >>>>>>>>>>>>>>>>>>>>>>>>>>>>>>>>>>>>>>>>>>>>>>>>>>>>>>>FOR COMPONENT NO. 01<<<<<<<<<<<<<<<<<<<<<<<<<<<<<<<<<<<<<<<<<<<<<<<<<<<<<<<


                                            -------------------------------------------
                                                      TRANSPORT STEP NO.   71
                                            -------------------------------------------

 TOTAL ELAPSED TIME SINCE BEGINNING OF SIMULATION =   4.000000      yr
 .....................................................................

                     CUMMULATIVE MASS BUDGETS AT END OF TRANSPORT STEP   71, TIME STEP    1, STRESS PERIOD    1
                     ------------------------------------------------------------------------------------------

                                                             IN                           OUT
                                                      ----------------             ----------------
                               CONSTANT CONCENTRATION:    0.000000                    0.000000    
                                        CONSTANT HEAD:    0.000000                    0.000000    
                                                WELLS:    0.000000                  -0.9664180E+09
                                             RECHARGE:    0.000000                    0.000000    
                              DECAY OR BIODEGRADATION:    0.000000                    0.000000    
                                MASS STORAGE (SOLUTE):   0.3212748E+09              -0.2787280E+08
                                MASS STORAGE (SORBED):   0.7243336E+09              -0.5108138E+08
                            ---------------------------------------------------------------------------
                                              [TOTAL]:   0.1045653E+10   kg         -0.1045810E+10   kg

                                                          NET (IN - OUT):   -156992.0    
                                                   DISCREPANCY (PERCENT):  -0.1501265E-01



 >>>>>>>>>>>>>>>>>>>>>>>>>>>>>>>>>>>>>>>>>>>>>>>>>>>>>>>FOR COMPONENT NO. 02<<<<<<<<<<<<<<<<<<<<<<<<<<<<<<<<<<<<<<<<<<<<<<<<<<<<<<<


                                            -------------------------------------------
                                                      TRANSPORT STEP NO.   71
                                            -------------------------------------------

 TOTAL ELAPSED TIME SINCE BEGINNING OF SIMULATION =   4.000000      yr
 .....................................................................

                     CUMMULATIVE MASS BUDGETS AT END OF TRANSPORT STEP   71, TIME STEP    1, STRESS PERIOD    1
                     ------------------------------------------------------------------------------------------

                                                             IN                           OUT
                                                      ----------------             ----------------
                               CONSTANT CONCENTRATION:    0.000000                    0.000000    
                                        CONSTANT HEAD:    0.000000                    0.000000    
                                                WELLS:    0.000000                   -318.9836    
                                             RECHARGE:    0.000000                    0.000000    
                              DECAY OR BIODEGRADATION:    0.000000                    0.000000    
                                MASS STORAGE (SOLUTE):   0.1596956E+08              -0.1856623E+08
                                MASS STORAGE (SORBED):   0.8670331E+09              -0.8632859E+09
                            ---------------------------------------------------------------------------
                                              [TOTAL]:   0.8830026E+09   kg         -0.8830337E+09   kg

                                                          NET (IN - OUT):   -31104.00    
                                                   DISCREPANCY (PERCENT):  -0.3522464E-02
     1 CALLS TO GCG PACKAGE FOR TRANSPORT TIME STEP  72 IN FLOW TIME STEP   1 STRESS PERIOD   1
     3 TOTAL ITERATIONS
     1 CALLS TO GCG PACKAGE FOR TRANSPORT TIME STEP  72 IN FLOW TIME STEP   1 STRESS PERIOD   1
     2 TOTAL ITERATIONS
     1 CALLS TO GCG PACKAGE FOR TRANSPORT TIME STEP  73 IN FLOW TIME STEP   1 STRESS PERIOD   1
     3 TOTAL ITERATIONS
     1 CALLS TO GCG PACKAGE FOR TRANSPORT TIME STEP  73 IN FLOW TIME STEP   1 STRESS PERIOD   1
     2 TOTAL ITERATIONS
     1 CALLS TO GCG PACKAGE FOR TRANSPORT TIME STEP  74 IN FLOW TIME STEP   1 STRESS PERIOD   1
     3 TOTAL ITERATIONS
     1 CALLS TO GCG PACKAGE FOR TRANSPORT TIME STEP  74 IN FLOW TIME STEP   1 STRESS PERIOD   1
     2 TOTAL ITERATIONS
     1 CALLS TO GCG PACKAGE FOR TRANSPORT TIME STEP  75 IN FLOW TIME STEP   1 STRESS PERIOD   1
     3 TOTAL ITERATIONS
     1 CALLS TO GCG PACKAGE FOR TRANSPORT TIME STEP  75 IN FLOW TIME STEP   1 STRESS PERIOD   1
     2 TOTAL ITERATIONS
     1 CALLS TO GCG PACKAGE FOR TRANSPORT TIME STEP  76 IN FLOW TIME STEP   1 STRESS PERIOD   1
     3 TOTAL ITERATIONS
     1 CALLS TO GCG PACKAGE FOR TRANSPORT TIME STEP  76 IN FLOW TIME STEP   1 STRESS PERIOD   1
     2 TOTAL ITERATIONS
     1 CALLS TO GCG PACKAGE FOR TRANSPORT TIME STEP  77 IN FLOW TIME STEP   1 STRESS PERIOD   1
     3 TOTAL ITERATIONS
     1 CALLS TO GCG PACKAGE FOR TRANSPORT TIME STEP  77 IN FLOW TIME STEP   1 STRESS PERIOD   1
     2 TOTAL ITERATIONS
     1 CALLS TO GCG PACKAGE FOR TRANSPORT TIME STEP  78 IN FLOW TIME STEP   1 STRESS PERIOD   1
     3 TOTAL ITERATIONS
     1 CALLS TO GCG PACKAGE FOR TRANSPORT TIME STEP  78 IN FLOW TIME STEP   1 STRESS PERIOD   1
     2 TOTAL ITERATIONS
     1 CALLS TO GCG PACKAGE FOR TRANSPORT TIME STEP  79 IN FLOW TIME STEP   1 STRESS PERIOD   1
     3 TOTAL ITERATIONS
     1 CALLS TO GCG PACKAGE FOR TRANSPORT TIME STEP  79 IN FLOW TIME STEP   1 STRESS PERIOD   1
     2 TOTAL ITERATIONS
     1 CALLS TO GCG PACKAGE FOR TRANSPORT TIME STEP  80 IN FLOW TIME STEP   1 STRESS PERIOD   1
     3 TOTAL ITERATIONS
     1 CALLS TO GCG PACKAGE FOR TRANSPORT TIME STEP  80 IN FLOW TIME STEP   1 STRESS PERIOD   1
     2 TOTAL ITERATIONS
     1 CALLS TO GCG PACKAGE FOR TRANSPORT TIME STEP  81 IN FLOW TIME STEP   1 STRESS PERIOD   1
     3 TOTAL ITERATIONS
     1 CALLS TO GCG PACKAGE FOR TRANSPORT TIME STEP  81 IN FLOW TIME STEP   1 STRESS PERIOD   1
     2 TOTAL ITERATIONS
     1 CALLS TO GCG PACKAGE FOR TRANSPORT TIME STEP  82 IN FLOW TIME STEP   1 STRESS PERIOD   1
     1 TOTAL ITERATIONS
  MAXIMUM CONCENTRATION CHANGES FOR EACH ITERATION:
  MAX. CHANGE LAYER,ROW,COL MAX. CHANGE LAYER,ROW,COL MAX. CHANGE LAYER,ROW,COL MAX. CHANGE LAYER,ROW,COL MAX. CHANGE LAYER,ROW,COL
 ------------------------------------------------------------------------------------------------------------------------------------
    0.000     (  1,  1,  1)
     1 CALLS TO GCG PACKAGE FOR TRANSPORT TIME STEP  82 IN FLOW TIME STEP   1 STRESS PERIOD   1
     1 TOTAL ITERATIONS
  MAXIMUM CONCENTRATION CHANGES FOR EACH ITERATION:
  MAX. CHANGE LAYER,ROW,COL MAX. CHANGE LAYER,ROW,COL MAX. CHANGE LAYER,ROW,COL MAX. CHANGE LAYER,ROW,COL MAX. CHANGE LAYER,ROW,COL
 ------------------------------------------------------------------------------------------------------------------------------------
    0.000     (  1,  1,  1)



 >>>>>>>>>>>>>>>>>>>>>>>>>>>>>>>>>>>>>>>>>>>>>>>>>>>>>>>FOR COMPONENT NO. 01<<<<<<<<<<<<<<<<<<<<<<<<<<<<<<<<<<<<<<<<<<<<<<<<<<<<<<<


                                            -------------------------------------------
                                                      TRANSPORT STEP NO.   82
                                            -------------------------------------------

 TOTAL ELAPSED TIME SINCE BEGINNING OF SIMULATION =   5.000000      yr
 .....................................................................

                     CUMMULATIVE MASS BUDGETS AT END OF TRANSPORT STEP   82, TIME STEP    1, STRESS PERIOD    1
                     ------------------------------------------------------------------------------------------

                                                             IN                           OUT
                                                      ----------------             ----------------
                               CONSTANT CONCENTRATION:    0.000000                    0.000000    
                                        CONSTANT HEAD:    0.000000                    0.000000    
                                                WELLS:    0.000000                  -0.1043228E+10
                                             RECHARGE:    0.000000                    0.000000    
                              DECAY OR BIODEGRADATION:    0.000000                    0.000000    
                                MASS STORAGE (SOLUTE):   0.3441065E+09              -0.2892511E+08
                                MASS STORAGE (SORBED):   0.7825770E+09              -0.5425842E+08
                            ---------------------------------------------------------------------------
                                              [TOTAL]:   0.1126736E+10   kg         -0.1126899E+10   kg

                                                          NET (IN - OUT):   -163328.0    
                                                   DISCREPANCY (PERCENT):  -0.1449463E-01



 >>>>>>>>>>>>>>>>>>>>>>>>>>>>>>>>>>>>>>>>>>>>>>>>>>>>>>>FOR COMPONENT NO. 02<<<<<<<<<<<<<<<<<<<<<<<<<<<<<<<<<<<<<<<<<<<<<<<<<<<<<<<


                                            -------------------------------------------
                                                      TRANSPORT STEP NO.   82
                                            -------------------------------------------

 TOTAL ELAPSED TIME SINCE BEGINNING OF SIMULATION =   5.000000      yr
 .....................................................................

                     CUMMULATIVE MASS BUDGETS AT END OF TRANSPORT STEP   82, TIME STEP    1, STRESS PERIOD    1
                     ------------------------------------------------------------------------------------------

                                                             IN                           OUT
                                                      ----------------             ----------------
                               CONSTANT CONCENTRATION:    0.000000                    0.000000    
                                        CONSTANT HEAD:    0.000000                    0.000000    
                                                WELLS:    0.000000                   -1600.250    
                                             RECHARGE:    0.000000                    0.000000    
                              DECAY OR BIODEGRADATION:    0.000000                    0.000000    
                                MASS STORAGE (SOLUTE):   0.1898381E+08              -0.2213332E+08
                                MASS STORAGE (SORBED):   0.1034920E+10              -0.1030348E+10
                            ---------------------------------------------------------------------------
                                              [TOTAL]:   0.1053904E+10   kg         -0.1053939E+10   kg

                                                          NET (IN - OUT):   -35648.00    
                                                   DISCREPANCY (PERCENT):  -0.3382415E-02
  ----- 
 | M T |
 | 3 D | END OF MODEL OUTPUT
  ----- 
